
  OWA STORM WATER MANAGEMENT MODEL - VERSION v5.1.14 (OWA 2022-07-31)
  --------------------------------------------------------------

  WARNING 04: minimum elevation drop used for Conduit WS02004404WS02004405
  WARNING 03: negative offset ignored for Link YS02001904YS02001907
  
  *********************************************************
  NOTE: The summary statistics displayed in this report are
  based on results found at every computational time step,  
  not just on results from each reporting time step.
  *********************************************************
  
  ****************
  Analysis Options
  ****************
  Flow Units ............... LPS
  Process Models:
    Rainfall/Runoff ........ YES
    RDII ................... NO
    Snowmelt ............... NO
    Groundwater ............ NO
    Flow Routing ........... YES
    Ponding Allowed ........ NO
    Water Quality .......... NO
  Infiltration Method ...... HORTON
  Flow Routing Method ...... DYNWAVE
  Surcharge Method ......... EXTRAN
  Starting Date ............ 08/28/2015 08:00:00
  Ending Date .............. 08/28/2015 16:00:00
  Antecedent Dry Days ...... 8.0
  Report Time Step ......... 00:01:00
  Wet Time Step ............ 00:01:00
  Dry Time Step ............ 00:01:00
  Routing Time Step ........ 30.00 sec
  Variable Time Step ....... YES
  Maximum Trials ........... 8
  Number of Threads ........ 4
  Head Tolerance ........... 0.001500 m
  
  
  **************************        Volume         Depth
  Runoff Quantity Continuity     hectare-m            mm
  **************************     ---------       -------
  Total Precipitation ......         3.004        49.583
  Evaporation Loss .........         0.000         0.000
  Infiltration Loss ........         0.227         3.753
  Surface Runoff ...........         2.716        44.838
  Final Storage ............         0.061         1.005
  Continuity Error (%) .....        -0.026
  
  
  **************************        Volume        Volume
  Flow Routing Continuity        hectare-m      10^6 ltr
  **************************     ---------     ---------
  Dry Weather Inflow .......         0.630         6.296
  Wet Weather Inflow .......         2.716        27.162
  Groundwater Inflow .......         0.000         0.000
  RDII Inflow ..............         0.000         0.000
  External Inflow ..........         0.105         1.045
  External Outflow .........         2.323        23.226
  Flooding Loss ............         1.121        11.212
  Evaporation Loss .........         0.000         0.000
  Exfiltration Loss ........         0.000         0.000
  Initial Stored Volume ....         0.303         3.031
  Final Stored Volume ......         0.321         3.213
  Continuity Error (%) .....        -0.314
  
  
  *************************
  Highest Continuity Errors
  *************************
  Node YS02001583 (-10.27%)
  Node YS02001884 (4.71%)
  Node WS02006256 (-3.23%)
  Node HS02004842 (1.84%)
  Node YS02001774 (1.68%)
  
  
  ***************************
  Time-Step Critical Elements
  ***************************
  Link WS02006280WS02006229 (42.01%)
  Link WS02006252WS02006251 (18.07%)
  Link WS02006238WS02006235 (13.73%)
  Link WS02004404WS02004405 (7.07%)
  Link YS02001791YS02001793 (6.22%)
  
  
  ********************************
  Highest Flow Instability Indexes
  ********************************
  Link WS02006113WS02006111 (26)
  Link WS02006256WS02006235 (21)
  Link WS02004404WS02004405 (21)
  Link WS02006238WS02006235 (20)
  Link WS02006229WS02006228 (19)
  
  
  *************************
  Routing Time Step Summary
  *************************
  Minimum Time Step           :     0.00 sec
  Average Time Step           :     2.46 sec
  Maximum Time Step           :     7.98 sec
  Percent in Steady State     :    -0.00
  Average Iterations per Step :     3.40
  Percent Not Converging      :    14.35
  
  
  ***************************
  Subcatchment Runoff Summary
  ***************************
  
  ------------------------------------------------------------------------------------------------------------------------------
                            Total      Total      Total      Total     Imperv       Perv      Total       Total     Peak  Runoff
                           Precip      Runon       Evap      Infil     Runoff     Runoff     Runoff      Runoff   Runoff   Coeff
  Subcatchment                 mm         mm         mm         mm         mm         mm         mm    10^6 ltr      LPS
  ------------------------------------------------------------------------------------------------------------------------------
  sub0                      49.58       0.00       0.00       0.97      44.86       2.50      47.37        0.04    29.99   0.955
  sub1                      49.58       0.00       0.00       1.63      42.88       3.83      46.71        0.31   193.79   0.942
  sub10                     49.58       0.00       0.00       1.15      44.34       2.82      47.15        0.52   333.93   0.951
  sub11                     49.58       0.00       0.00       1.14      44.35       2.83      47.19        0.55   374.08   0.952
  sub12                     49.58       0.00       0.00       1.85      41.96       4.60      46.56        0.41   305.76   0.939
  sub14                     49.58       0.00       0.00       1.30      43.86       3.17      47.03        0.45   296.66   0.949
  sub15                     49.58       0.00       0.00       5.01      33.74       9.87      43.61        0.75   436.20   0.880
  sub16                     49.58       0.00       0.00       5.19      32.31      11.17      43.49        0.46   295.41   0.877
  sub17                     49.58       0.00       0.00       5.06      32.79      10.81      43.60        0.37   239.82   0.879
  sub2                      49.58       0.00       0.00       7.10      30.34      11.25      41.58        0.39   187.20   0.839
  sub22                     49.58       0.00       0.00       7.57      27.48      13.76      41.24        2.61  1426.02   0.832
  sub23                     49.58       0.00       0.00       6.18      30.38      12.17      42.54        2.03  1197.24   0.858
  sub3                      49.58       0.00       0.00       7.68      30.30      10.66      40.96        0.92   398.93   0.826
  sub4                      49.58       0.00       0.00       1.80      42.72       3.65      46.38        0.97   444.72   0.935
  sub5                      49.58       0.00       0.00       1.01      44.81       2.47      47.28        0.54   336.69   0.953
  sub60                     49.58       0.00       0.00       1.74      42.43       4.22      46.65        0.61   422.81   0.941
  sub61                     49.58       0.00       0.00       2.51      40.02       5.92      45.94        0.84   582.26   0.927
  sub62                     49.58       0.00       0.00       1.16      44.33       2.81      47.14        1.29   815.79   0.951
  sub63                     49.58       0.00       0.00       4.60      34.23       9.78      44.01        1.00   632.01   0.888
  sub64                     49.58       0.00       0.00       2.33      40.94       5.11      46.05        1.11   645.72   0.929
  sub65                     49.58       0.00       0.00       2.02      41.89       4.43      46.32        1.28   719.50   0.934
  sub66                     49.58       0.00       0.00       5.64      34.13       8.74      42.87        2.00   899.35   0.865
  sub67                     49.58       0.00       0.00       1.12      44.37       2.85      47.22        0.88   652.55   0.952
  sub68                     49.58       0.00       0.00       2.08      41.45       4.87      46.32        1.27   835.17   0.934
  sub69                     49.58       0.00       0.00       1.82      42.04       5.62      47.66        1.76   966.35   0.961
  sub7                      49.58       0.00       0.00       1.28      43.88       3.19      47.06        0.16   111.57   0.949
  sub70                     49.58       0.00       0.00       6.00      32.56      10.86      43.42        1.25   507.12   0.876
  sub71                     49.58       0.00       0.00       1.18      44.29       2.78      47.08        1.23   702.93   0.949
  sub72                     49.58       0.00       0.00       1.05      44.71       2.42      47.13        0.65   332.67   0.951
  sub8                      49.58       0.00       0.00       1.29      43.87       3.17      47.04        0.30   202.14   0.949
  sub9                      49.58       0.00       0.00       1.29      43.87       3.17      47.04        0.23   150.92   0.949
  
  
  ******************
  Node Depth Summary
  ******************
  
  ---------------------------------------------------------------------------------
                                 Average  Maximum  Maximum  Time of Max    Reported
                                   Depth    Depth      HGL   Occurrence   Max Depth
  Node                 Type       Meters   Meters   Meters  days hr:min      Meters
  ---------------------------------------------------------------------------------
  HS02004478           JUNCTION     0.21     1.59    10.82     0  01:49        1.56
  HS02004479           JUNCTION     0.29     1.69    10.90     0  01:49        1.66
  HS02004480           JUNCTION     0.26     1.67    10.91     0  01:49        1.64
  HS02004770           JUNCTION     0.26     1.42    11.25     0  01:46        1.42
  HS02004777           JUNCTION     0.29     1.48    11.28     0  01:46        1.48
  HS02004785           JUNCTION     0.18     1.49    11.39     0  01:46        1.46
  HS02004788           JUNCTION     0.14     1.42    11.32     0  01:46        1.42
  HS02004792           JUNCTION     0.20     1.60    11.12     0  01:45        1.60
  HS02004799           JUNCTION     0.31     1.76    10.97     0  01:47        1.76
  HS02004802           JUNCTION     0.31     1.80    10.93     0  01:49        1.75
  HS02004807           JUNCTION     0.28     1.92    11.09     0  01:47        1.84
  HS02004817           JUNCTION     0.59     2.44    11.29     0  01:47        2.22
  HS02004824           JUNCTION     0.15     2.01    11.41     0  01:47        1.74
  HS02004830           JUNCTION     0.15     2.03    11.50     0  01:47        1.70
  HS02004837           JUNCTION     0.12     2.04    11.62     0  01:47        1.61
  HS02004842           JUNCTION     0.42     2.22    11.49     0  01:49        1.93
  HS02004848           JUNCTION     0.10     2.01    11.61     0  01:49        1.61
  HS02004852           JUNCTION     0.11     2.06    11.57     0  01:49        1.66
  HS02004856           JUNCTION     0.17     2.07    11.50     0  01:49        1.70
  HS02004862           JUNCTION     0.12     2.00    11.38     0  01:49        1.68
  HS02004870           JUNCTION     0.12     2.10    11.39     0  01:49        1.67
  HS02004876           JUNCTION     0.17     2.26    11.29     0  01:49        1.77
  HS02004881           JUNCTION     0.11     2.15    11.18     0  01:49        1.55
  HS02004901           JUNCTION     0.27     1.42    11.24     0  01:46        1.42
  WS02001211           JUNCTION     0.64     0.82     5.66     0  01:51        0.81
  WS02001212           JUNCTION     0.38     0.58     5.64     0  01:50        0.58
  WS02001213           JUNCTION     0.60     0.88     5.64     0  01:52        0.86
  WS02003059           JUNCTION     0.67     0.95     5.63     0  01:52        0.95
  WS02003060           JUNCTION     0.39     0.69     5.62     0  01:53        0.68
  WS02003066           JUNCTION     0.23     0.45     6.01     0  01:51        0.45
  WS02003067           JUNCTION     0.55     0.89     6.21     0  01:54        0.88
  WS02003069           JUNCTION     0.43     0.77     5.36     0  01:54        0.77
  WS02003072           JUNCTION     0.50     0.81     5.18     0  01:54        0.81
  WS02003073           JUNCTION     0.30     0.51     4.58     0  01:55        0.51
  WS02004138           JUNCTION     0.13     0.14     7.39     0  00:29        0.14
  WS02004139           JUNCTION     0.58     0.75     5.66     0  01:52        0.74
  WS02004401           JUNCTION     0.77     1.81     7.81     0  01:50        1.81
  WS02004402           JUNCTION     0.79     1.76     7.72     0  01:51        1.75
  WS02004403           JUNCTION     0.79     1.69     7.62     0  01:50        1.68
  WS02004404           JUNCTION     0.86     1.70     7.55     0  01:51        1.69
  WS02004405           JUNCTION     0.85     1.65     7.50     0  01:50        1.65
  WS02004406           JUNCTION     0.84     1.54     7.37     0  01:49        1.53
  WS02004407           JUNCTION     0.26     0.89     7.21     0  01:50        0.89
  WS02004409           JUNCTION     0.54     1.37     7.14     0  01:49        1.35
  WS02004410           JUNCTION     0.54     1.28     7.00     0  01:51        1.28
  WS02004411           JUNCTION     0.55     1.21     6.89     0  01:45        1.19
  WS02004412           JUNCTION     0.55     1.10     6.74     0  01:51        1.09
  WS02004413           JUNCTION     0.69     1.14     6.61     0  01:51        1.14
  WS02006109           JUNCTION     0.97     2.64     9.26     0  01:47        2.64
  WS02006110           JUNCTION     0.91     2.38     8.96     0  01:50        2.37
  WS02006111           JUNCTION     0.41     1.68     8.39     0  01:51        1.68
  WS02006112           JUNCTION     0.98     2.32     8.20     0  01:50        2.32
  WS02006113           JUNCTION     0.49     1.87     8.76     0  01:43        1.78
  WS02006115           JUNCTION     0.69     1.90     8.04     0  01:50        1.90
  WS02006116           JUNCTION     0.76     1.90     7.94     0  01:50        1.90
  WS02006228           JUNCTION     1.02     3.03     9.68     0  01:49        3.01
  WS02006229           JUNCTION     1.03     3.24     9.94     0  01:49        3.21
  WS02006230           JUNCTION     0.97     2.65     9.39     0  01:45        2.65
  WS02006231           JUNCTION     0.70     2.19     9.31     0  02:03        2.19
  WS02006232           JUNCTION     0.80     2.18     9.22     0  01:45        2.18
  WS02006234           JUNCTION     0.69     1.96     9.12     0  01:44        1.96
  WS02006235           JUNCTION     0.70     1.94     9.11     0  01:47        1.94
  WS02006238           JUNCTION     0.72     1.95     9.09     0  01:47        1.93
  WS02006239           JUNCTION     0.67     1.80     9.01     0  02:00        1.79
  WS02006240           JUNCTION     0.62     1.84     9.14     0  01:40        1.63
  WS02006242           JUNCTION     0.66     1.55     8.82     0  01:40        1.55
  WS02006243           JUNCTION     0.56     1.48     8.90     0  01:40        1.37
  WS02006245           JUNCTION     0.54     1.28     8.77     0  02:46        1.27
  WS02006247           JUNCTION     0.55     1.24     8.74     0  02:46        1.23
  WS02006248           JUNCTION     0.50     1.10     8.69     0  01:43        1.10
  WS02006249           JUNCTION     0.52     1.09     8.69     0  01:41        1.09
  WS02006251           JUNCTION     0.62     2.21     9.88     0  01:49        2.11
  WS02006252           JUNCTION     0.42     1.50     9.74     0  00:00        1.50
  WS02006253           JUNCTION     0.68     3.39    11.03     0  01:49        2.84
  WS02006256           JUNCTION     1.03     2.35     9.28     0  00:00        2.35
  WS02006280           JUNCTION     0.27     1.77    10.04     0  01:49        1.73
  WS02006284           JUNCTION     0.54     1.97    10.37     0  01:49        1.93
  WS02006287           JUNCTION     0.28     1.75    10.70     0  01:49        1.72
  WSF200               JUNCTION     0.23     0.52     5.75     0  01:53        0.52
  YS02001580           JUNCTION     0.07     1.05     9.59     0  01:47        0.76
  YS02001583           JUNCTION     0.11     1.14     9.64     0  01:47        0.82
  YS02001586           JUNCTION     0.18     1.13     9.30     0  01:47        1.13
  YS02001590           JUNCTION     0.28     1.40     9.26     0  01:45        1.37
  YS02001593           JUNCTION     0.21     1.40     9.27     0  01:45        1.29
  YS02001596           JUNCTION     0.28     1.76     9.18     0  01:45        1.65
  YS02001600           JUNCTION     0.35     1.87     9.00     0  01:45        1.87
  YS02001601           JUNCTION     0.55     2.06     8.90     0  01:45        2.06
  YS02001602           JUNCTION     0.46     1.87     8.77     0  01:47        1.87
  YS02001605           JUNCTION     0.43     1.78     8.68     0  01:47        1.77
  YS02001607           JUNCTION     0.42     1.65     8.49     0  01:49        1.65
  YS02001610           JUNCTION     0.46     1.68     8.48     0  01:47        1.68
  YS02001613           JUNCTION     0.42     1.70     8.54     0  01:47        1.65
  YS02001616           JUNCTION     0.35     1.61     8.52     0  01:47        1.59
  YS02001619           JUNCTION     0.33     1.61     8.54     0  01:47        1.59
  YS02001622           JUNCTION     0.32     1.62     8.52     0  01:47        1.56
  YS02001625           JUNCTION     0.58     1.78     8.38     0  01:47        1.78
  YS02001629           JUNCTION     0.44     1.85     8.40     0  01:47        1.85
  YS02001633           JUNCTION     0.52     2.03     8.49     0  01:50        2.03
  YS02001641           JUNCTION     0.50     1.96     8.39     0  01:50        1.95
  YS02001644           JUNCTION     0.49     1.92     8.35     0  01:49        1.92
  YS02001647           JUNCTION     0.27     1.75     8.36     0  01:51        1.69
  YS02001649           JUNCTION     0.32     1.97     8.36     0  01:50        1.87
  YS02001652           JUNCTION     0.20     1.87     8.47     0  01:50        1.71
  YS02001655           JUNCTION     0.15     1.92     8.77     0  01:49        1.49
  YS02001658           JUNCTION     0.10     1.83     8.97     0  01:50        1.25
  YS02001661           JUNCTION     0.14     1.50     8.91     0  01:51        1.03
  YS02001664           JUNCTION     0.05     0.62     8.55     0  01:51        0.48
  YS02001745           JUNCTION     0.05     0.91     8.43     0  01:50        0.78
  YS02001748           JUNCTION     0.10     1.88     8.96     0  01:50        1.18
  YS02001751           JUNCTION     0.12     1.91     8.79     0  01:50        1.34
  YS02001754           JUNCTION     0.17     1.89     8.50     0  01:50        1.57
  YS02001757           JUNCTION     0.33     2.06     8.32     0  01:50        1.89
  YS02001759           JUNCTION     0.27     2.01     8.37     0  01:50        1.87
  YS02001762           JUNCTION     0.27     1.98     8.38     0  01:50        1.86
  YS02001765           JUNCTION     0.25     1.95     8.40     0  01:50        1.83
  YS02001767           JUNCTION     0.24     1.92     8.41     0  01:50        1.83
  YS02001770           JUNCTION     0.26     1.95     8.44     0  01:50        1.87
  YS02001774           JUNCTION     0.32     2.01     8.43     0  01:50        1.94
  YS02001779           JUNCTION     0.15     1.68     8.37     0  01:49        1.68
  YS02001783           JUNCTION     0.23     1.32     7.46     0  01:48        1.22
  YS02001784           JUNCTION     0.25     1.19     7.26     0  01:48        1.10
  YS02001786           JUNCTION     0.21     0.99     7.02     0  01:48        0.87
  YS02001788           JUNCTION     0.15     0.62     6.60     0  01:51        0.62
  YS02001790           JUNCTION     0.18     0.72     6.37     0  01:54        0.71
  YS02001791           JUNCTION     0.11     0.44     5.91     0  01:50        0.42
  YS02001793           JUNCTION     0.06     0.30     5.13     0  01:56        0.29
  YS02001882           JUNCTION     0.29     1.83     8.55     0  01:47        1.79
  YS02001884           JUNCTION     0.38     1.87     8.48     0  01:48        1.86
  YS02001887           JUNCTION     0.46     1.88     8.42     0  01:48        1.88
  YS02001890           JUNCTION     0.49     1.81     8.32     0  01:47        1.81
  YS02001895           JUNCTION     0.26     1.64     8.39     0  01:47        1.57
  YS02001898           JUNCTION     0.27     1.70     8.43     0  01:47        1.59
  YS02001901           JUNCTION     0.38     1.73     8.34     0  01:48        1.69
  YS02001904           JUNCTION     0.36     1.67     8.30     0  01:48        1.65
  YS02001907           JUNCTION     0.68     1.96     8.25     0  01:48        1.96
  YS02001910           JUNCTION     0.48     1.99     8.50     0  01:49        1.84
  YS02001915           JUNCTION     0.29     1.94     8.66     0  01:49        1.71
  YS02001918           JUNCTION     0.15     1.81     8.88     0  01:49        1.39
  YS02001920           JUNCTION     0.23     2.14     9.15     0  01:49        1.47
  YS02001923           JUNCTION     0.11     2.03     9.29     0  01:49        1.26
  YS02001926           JUNCTION     0.15     1.90     9.35     0  01:49        1.08
  YS02001929           JUNCTION     0.08     1.78     9.47     0  01:49        0.85
  YS02006553           JUNCTION     0.69     1.99     8.28     0  01:48        1.97
  YS02006556           JUNCTION     0.66     2.00     8.31     0  01:48        1.95
  YS02006558           JUNCTION     0.70     2.05     8.31     0  01:48        1.99
  YS02006561           JUNCTION     0.14     0.99     7.65     0  01:48        0.89
  YS02163301           JUNCTION     0.46     1.93     8.44     0  01:50        1.93
  YS02163601           JUNCTION     0.55     2.04     8.44     0  01:49        2.04
  YS02164001           JUNCTION     0.49     1.96     8.42     0  01:50        1.95
  YSB1154              JUNCTION     0.43     1.91    10.96     0  01:47        1.89
  YSB1171              JUNCTION     0.57     1.95    10.85     0  01:47        1.95
  YSB1174              JUNCTION     0.38     1.80    10.91     0  01:47        1.79
  YSB6556              JUNCTION     0.32     1.76    10.93     0  01:47        1.73
  CC-1                 OUTFALL      0.00     0.00     0.00     0  00:00        0.00
  CC-2                 OUTFALL      0.00     0.00     0.00     0  00:00        0.00
  JK-1                 OUTFALL      0.00     0.00     0.00     0  00:00        0.00
  JK-2                 OUTFALL      0.00     0.00     0.00     0  00:00        0.00
  WSC                  OUTFALL      0.30     0.51     1.18     0  01:56        0.51
  CC-storage           STORAGE      0.78     1.49     6.99     0  02:17        1.49
  JK-storage           STORAGE      1.57     4.24     5.04     0  01:56        4.20
  XR-storage           STORAGE      7.91     9.26     7.26     0  08:00        9.26
  
  
  *******************
  Node Inflow Summary
  *******************
  
  -------------------------------------------------------------------------------------------------
                                  Maximum  Maximum                  Lateral       Total        Flow
                                  Lateral    Total  Time of Max      Inflow      Inflow     Balance
                                   Inflow   Inflow   Occurrence      Volume      Volume       Error
  Node                 Type           LPS      LPS  days hr:min    10^6 ltr    10^6 ltr     Percent
  -------------------------------------------------------------------------------------------------
  HS02004478           JUNCTION      0.00  2276.75     0  01:50           0        7.36      -0.015
  HS02004479           JUNCTION      0.00   543.14     0  01:48           0       0.706       0.147
  HS02004480           JUNCTION      0.00  2186.33     0  01:47           0        5.56       0.047
  HS02004770           JUNCTION   1197.24  1197.24     0  01:51        2.03        2.25       0.128
  HS02004777           JUNCTION      0.03   853.24     0  01:46    0.000864        1.66       0.312
  HS02004785           JUNCTION      0.15   896.56     0  01:46     0.00432        1.66       0.031
  HS02004788           JUNCTION    437.87  1007.72     0  01:46       0.798        2.46      -0.015
  HS02004792           JUNCTION   1426.30  2178.60     0  01:51        2.61        5.07       0.003
  HS02004799           JUNCTION    296.66  1744.84     0  01:47       0.448         4.9       0.060
  HS02004802           JUNCTION      0.00   959.33     0  01:51           0        1.83       0.217
  HS02004807           JUNCTION    374.08   958.67     0  01:51       0.548        1.87       0.216
  HS02004817           JUNCTION      0.60   599.57     0  01:52      0.0173        1.38       1.216
  HS02004824           JUNCTION    444.77   775.83     0  01:47       0.969        1.54       0.052
  HS02004830           JUNCTION      0.15   772.81     0  01:47     0.00432       0.748       0.136
  HS02004837           JUNCTION    340.28  1015.55     0  01:47       0.703        1.08       0.027
  HS02004842           JUNCTION      0.00  1043.37     0  01:47           0       0.709       1.874
  HS02004848           JUNCTION    398.93  1299.42     0  01:47       0.922        1.47       0.007
  HS02004852           JUNCTION      0.00  1197.49     0  01:48           0        1.32       0.018
  HS02004856           JUNCTION    150.92  1330.72     0  01:48       0.226        1.55       0.100
  HS02004862           JUNCTION    187.40  1481.26     0  01:48       0.393        1.94      -0.008
  HS02004870           JUNCTION    202.14  1648.93     0  01:49       0.301        2.24      -0.031
  HS02004876           JUNCTION    193.79  1444.86     0  01:49       0.311        2.55       0.010
  HS02004881           JUNCTION    111.57  1548.62     0  01:49       0.159         2.7      -0.008
  HS02004901           JUNCTION    295.41   503.52     0  01:53       0.455       0.669       0.257
  WS02001211           JUNCTION      7.35   233.98     0  01:49       0.212        5.44       0.610
  WS02001212           JUNCTION      0.00   216.02     0  01:52           0        5.41       0.291
  WS02001213           JUNCTION      0.00   228.40     0  01:54           0        5.39       0.331
  WS02003059           JUNCTION      0.00   219.24     0  02:29           0        5.39       0.594
  WS02003060           JUNCTION     16.53  1510.34     0  01:53       0.476        13.9       0.106
  WS02003066           JUNCTION      0.00  1283.62     0  01:50           0        8.02       0.018
  WS02003067           JUNCTION      0.00  1282.67     0  01:51           0        8.03       0.055
  WS02003069           JUNCTION      0.32  1497.03     0  01:53     0.00922        13.8       0.112
  WS02003072           JUNCTION      0.00  1496.54     0  01:54           0        13.8       0.151
  WS02003073           JUNCTION      1.82  1498.49     0  01:55      0.0524        13.8       0.157
  WS02004138           JUNCTION      0.00   380.00     0  00:00           0        5.25       0.053
  WS02004139           JUNCTION      0.32   191.14     0  00:29     0.00924        5.26       0.509
  WS02004401           JUNCTION      0.00  1282.38     0  01:50           0        8.13       0.133
  WS02004402           JUNCTION      0.00  1282.76     0  01:50           0        8.12       0.134
  WS02004403           JUNCTION      0.00  1282.53     0  01:50           0        8.11       0.128
  WS02004404           JUNCTION      0.16  1283.13     0  01:50     0.00467        8.11       0.111
  WS02004405           JUNCTION      0.04  1282.86     0  01:50      0.0011         8.1       0.155
  WS02004406           JUNCTION      0.00  1282.37     0  01:50           0        8.09       0.266
  WS02004407           JUNCTION      0.00  1282.79     0  01:50           0        8.06       0.021
  WS02004409           JUNCTION      0.00  1282.38     0  01:51           0        8.06       0.041
  WS02004410           JUNCTION      0.00  1282.72     0  01:50           0        8.06       0.061
  WS02004411           JUNCTION      0.00  1282.66     0  01:51           0        8.05       0.076
  WS02004412           JUNCTION      0.00  1282.58     0  01:51           0        8.05       0.100
  WS02004413           JUNCTION      0.00  1282.65     0  01:51           0        8.04       0.172
  WS02006109           JUNCTION      1.23  1275.75     0  01:50      0.0354        7.98       0.134
  WS02006110           JUNCTION      0.00  1122.67     0  02:06           0         7.8       0.102
  WS02006111           JUNCTION      0.00  1122.88     0  02:06           0        7.79       0.009
  WS02006112           JUNCTION    239.82  1282.05     0  01:50       0.374        8.16       0.224
  WS02006113           JUNCTION      0.00  1122.81     0  02:06           0        7.79       0.030
  WS02006115           JUNCTION      0.00  1282.08     0  01:50           0        8.14       0.082
  WS02006116           JUNCTION      0.00  1282.56     0  01:50           0        8.14       0.047
  WS02006228           JUNCTION      0.00  1275.81     0  01:50           0        7.95       0.068
  WS02006229           JUNCTION      0.00  2278.80     0  01:50           0        9.81       0.077
  WS02006230           JUNCTION     10.28  1012.74     0  01:50       0.296        4.36       0.229
  WS02006231           JUNCTION      0.00   504.76     0  03:15           0        3.33      -0.129
  WS02006232           JUNCTION      0.00   502.78     0  03:15           0        3.31       0.195
  WS02006234           JUNCTION      0.00   498.00     0  03:15           0        3.28      -0.342
  WS02006235           JUNCTION      0.00   492.22     0  03:15           0        3.33       0.375
  WS02006238           JUNCTION      0.00   418.88     0  03:32           0        3.05      -0.169
  WS02006239           JUNCTION      0.00   418.84     0  03:32           0        2.98      -0.130
  WS02006240           JUNCTION      0.00   418.78     0  03:32           0        2.95       0.039
  WS02006242           JUNCTION      0.00   418.74     0  03:32           0        2.95      -0.019
  WS02006243           JUNCTION      0.00   418.71     0  03:32           0        2.64      -0.267
  WS02006245           JUNCTION      0.00   418.66     0  03:32           0        2.65       0.510
  WS02006247           JUNCTION      0.00   418.61     0  03:32           0        2.65      -0.018
  WS02006248           JUNCTION      0.00   418.52     0  03:32           0        2.83      -0.134
  WS02006249           JUNCTION      0.00  1352.16     0  01:49           0        5.73       0.189
  WS02006251           JUNCTION      0.08  1584.52     0  01:49     0.00222        5.81      -0.014
  WS02006252           JUNCTION      0.00   634.29     0  01:49           0        3.27      -0.415
  WS02006253           JUNCTION     29.99  1582.35     0  01:49      0.0384        2.79       0.061
  WS02006256           JUNCTION      0.00   300.00     0  00:00           0       0.879      -3.132
  WS02006280           JUNCTION      0.00  2276.98     0  01:50           0        7.35       0.010
  WS02006284           JUNCTION      0.10  2276.57     0  01:51     0.00275        7.35       0.013
  WS02006287           JUNCTION      0.00  2278.05     0  01:50           0        7.35       0.014
  WSF200               JUNCTION      0.00  1282.39     0  01:52           0        8.02       0.010
  YS02001580           JUNCTION      0.00   167.63     0  01:47           0     0.00439      -6.261
  YS02001583           JUNCTION      0.00   287.81     0  01:47           0      0.0149      -9.312
  YS02001586           JUNCTION    507.12   507.12     0  01:54        1.25        1.27       0.155
  YS02001590           JUNCTION      0.00   317.94     0  01:54           0        1.11      -0.035
  YS02001593           JUNCTION      0.00   318.08     0  01:59           0        1.11       0.012
  YS02001596           JUNCTION      0.00   318.14     0  02:03           0        1.11      -0.000
  YS02001600           JUNCTION      0.00   317.99     0  02:03           0        1.11       0.006
  YS02001601           JUNCTION    966.35  1284.04     0  01:52        1.76        2.88       0.031
  YS02001602           JUNCTION      0.00   575.91     0  01:47           0        1.98       0.022
  YS02001605           JUNCTION      0.00   575.89     0  01:47           0        1.89       0.022
  YS02001607           JUNCTION      0.00   575.67     0  01:47           0        1.89       0.099
  YS02001610           JUNCTION      0.00   539.10     0  01:47           0        1.91       0.129
  YS02001613           JUNCTION      0.00   516.00     0  01:47           0         1.6       0.105
  YS02001616           JUNCTION      0.00   507.77     0  01:47           0         1.6       0.028
  YS02001619           JUNCTION    899.35   974.08     0  01:47           2        3.58       0.003
  YS02001622           JUNCTION      0.00   935.50     0  01:47           0        3.56      -0.006
  YS02001625           JUNCTION      0.00  1019.28     0  01:53           0        3.59       0.247
  YS02001629           JUNCTION      0.00   918.44     0  01:47           0        3.05       0.006
  YS02001633           JUNCTION    719.70  1428.15     0  01:48        1.28        4.28       0.082
  YS02001641           JUNCTION      0.00  1424.50     0  01:48           0        4.25       0.068
  YS02001644           JUNCTION    645.76  1937.47     0  01:48        1.11        5.36       0.064
  YS02001647           JUNCTION      0.00  1938.82     0  01:48           0         5.3       0.009
  YS02001649           JUNCTION      0.00  2205.41     0  01:49           0        6.31       0.003
  YS02001652           JUNCTION      0.00   792.89     0  01:51           0           1      -0.166
  YS02001655           JUNCTION      0.15   791.84     0  01:51     0.00443           1      -0.002
  YS02001658           JUNCTION      0.00   791.35     0  01:51           0       0.999      -0.117
  YS02001661           JUNCTION      0.00   814.64     0  01:51           0       0.999       0.045
  YS02001664           JUNCTION    632.01   632.01     0  01:51       0.999       0.999      -0.011
  YS02001745           JUNCTION    422.81   598.88     0  01:50       0.613       0.614       0.298
  YS02001748           JUNCTION      0.04   656.48     0  01:49      0.0013       0.617      -0.578
  YS02001751           JUNCTION      0.01   569.51     0  01:51    0.000317       0.626       0.108
  YS02001754           JUNCTION      0.26   571.90     0  01:51     0.00749       0.639      -0.257
  YS02001757           JUNCTION      0.00  3494.64     0  01:51           0        9.09       0.068
  YS02001759           JUNCTION    582.30  1409.75     0  01:50       0.844        2.14      -0.006
  YS02001762           JUNCTION      0.00   827.19     0  01:50           0         1.3       0.010
  YS02001765           JUNCTION      0.00   826.09     0  01:50           0         1.3       0.021
  YS02001767           JUNCTION      0.54   824.16     0  01:50      0.0154         1.3       0.018
  YS02001770           JUNCTION    815.94   816.51     0  01:50         1.3        1.34       0.015
  YS02001774           JUNCTION      0.00   540.57     0  01:49           0      0.0754       1.708
  YS02001779           JUNCTION      0.01   548.92     0  01:49    0.000144      0.0316      -1.531
  YS02001783           JUNCTION      0.00  1159.04     0  01:50           0        3.41       0.006
  YS02001784           JUNCTION      1.06  1160.29     0  01:50      0.0305        3.44       0.015
  YS02001786           JUNCTION      0.06  1160.65     0  01:49     0.00162        3.44       0.019
  YS02001788           JUNCTION      0.07  1162.52     0  01:49     0.00204        3.45       0.009
  YS02001790           JUNCTION      0.15  1168.62     0  01:51     0.00446        3.45       0.027
  YS02001791           JUNCTION      0.00  1275.31     0  01:55           0        3.45      -0.026
  YS02001793           JUNCTION      0.00  1234.36     0  01:55           0        3.45       0.008
  YS02001882           JUNCTION      0.00   109.58     0  01:47           0      0.0125       4.615
  YS02001884           JUNCTION      0.00   152.10     0  01:47           0       0.048       4.940
  YS02001887           JUNCTION    653.00   653.27     0  01:50       0.891       0.924       0.494
  YS02001890           JUNCTION      0.00   653.14     0  01:50           0       0.884       0.570
  YS02001895           JUNCTION      0.00   598.53     0  01:48           0       0.852       0.150
  YS02001898           JUNCTION      0.00   603.22     0  01:48           0        0.85       0.022
  YS02001901           JUNCTION      0.00   608.49     0  01:48           0       0.853       0.378
  YS02001904           JUNCTION      0.00   609.02     0  01:48           0       0.858       0.348
  YS02001907           JUNCTION      0.00  1650.07     0  01:50           0        2.81       0.641
  YS02001910           JUNCTION      0.00  1127.15     0  01:50           0        1.97       0.377
  YS02001915           JUNCTION    702.95  1127.56     0  01:50        1.23        2.02       0.071
  YS02001918           JUNCTION      0.00   723.54     0  01:48           0       0.818       0.033
  YS02001920           JUNCTION      2.87   696.60     0  01:48      0.0827       0.793       0.038
  YS02001923           JUNCTION      0.04   944.11     0  01:48     0.00109       0.692      -0.128
  YS02001926           JUNCTION      0.05  1190.78     0  01:48      0.0015       0.672      -0.430
  YS02001929           JUNCTION    332.67  1093.69     0  01:49       0.648       0.655      -0.166
  YS02006553           JUNCTION      0.00   795.61     0  02:05           0        2.16       0.554
  YS02006556           JUNCTION      0.00   795.21     0  02:05           0        2.17       0.368
  YS02006558           JUNCTION    836.05  1168.76     0  01:48         1.3        3.44       0.109
  YS02006561           JUNCTION      0.00  1171.24     0  01:48           0        3.41      -0.004
  YS02163301           JUNCTION      0.00   881.64     0  01:48           0        3.03       0.050
  YS02163601           JUNCTION      0.11  1427.55     0  01:48     0.00317        4.25       0.116
  YS02164001           JUNCTION      0.00  1426.27     0  01:48           0        4.25       0.063
  YSB1154              JUNCTION    336.69   336.69     0  01:51       0.536       0.536       0.275
  YSB1171              JUNCTION      0.00   636.81     0  01:50           0       0.952       0.674
  YSB1174              JUNCTION    305.76   305.76     0  01:50       0.407       0.407       0.316
  YSB6556              JUNCTION      0.00   336.71     0  01:51           0       0.537       0.230
  CC-1                 OUTFALL       0.00   683.00     0  00:00           0         4.2       0.000
  CC-2                 OUTFALL       0.00   683.00     0  00:00           0         2.5       0.000
  JK-1                 OUTFALL       0.00  1000.00     0  00:00           0        1.95       0.000
  JK-2                 OUTFALL       0.00  1000.00     0  00:00           0       0.748       0.000
  WSC                  OUTFALL       0.00  1498.04     0  01:56           0        13.8       0.000
  CC-storage           STORAGE       0.00  3493.29     0  01:51           0        11.3      -0.280
  JK-storage           STORAGE       0.00  1246.38     0  01:53           0         3.6      -0.464
  XR-storage           STORAGE     200.00   200.00     0  00:00        5.76        6.36       0.001
  
  
  **********************
  Node Surcharge Summary
  **********************
  
  Surcharging occurs when water rises above the top of the highest conduit.
  ---------------------------------------------------------------------
                                               Max. Height   Min. Depth
                                   Hours       Above Crown    Below Rim
  Node                 Type      Surcharged         Meters       Meters
  ---------------------------------------------------------------------
  HS02004478           JUNCTION        0.38          0.669        0.271
  HS02004479           JUNCTION        0.50          0.893        0.157
  HS02004480           JUNCTION        0.53          0.961        0.139
  HS02004770           JUNCTION        0.46          0.720        0.000
  HS02004777           JUNCTION        0.46          0.780        0.000
  HS02004785           JUNCTION        0.41          0.790        0.000
  HS02004788           JUNCTION        0.40          0.720        0.000
  HS02004792           JUNCTION        0.50          0.900        0.000
  HS02004799           JUNCTION        0.60          1.060        0.000
  HS02004802           JUNCTION        0.54          1.094        0.116
  HS02004807           JUNCTION        0.52          1.220        0.000
  HS02004817           JUNCTION        1.02          1.740        0.000
  HS02004824           JUNCTION        0.40          1.310        0.000
  HS02004830           JUNCTION        0.38          1.330        0.000
  HS02004837           JUNCTION        0.34          1.340        0.000
  HS02004842           JUNCTION        0.46          1.520        0.000
  HS02004848           JUNCTION        0.32          1.306        0.064
  HS02004852           JUNCTION        0.34          1.361        0.059
  HS02004856           JUNCTION        0.33          1.300        0.000
  HS02004862           JUNCTION        0.36          1.300        0.000
  HS02004870           JUNCTION        0.37          1.400        0.000
  HS02004876           JUNCTION        0.44          1.560        0.000
  HS02004881           JUNCTION        0.43          1.450        0.000
  HS02004901           JUNCTION        0.46          0.720        0.000
  WS02004401           JUNCTION        1.46          0.814        0.846
  WS02004402           JUNCTION        1.48          0.758        0.982
  WS02004403           JUNCTION        1.49          0.686        1.344
  WS02004404           JUNCTION        1.64          0.697        2.083
  WS02004405           JUNCTION        1.63          0.653        2.147
  WS02004406           JUNCTION        1.60          0.538        1.912
  WS02004409           JUNCTION        0.80          0.366        1.994
  WS02004410           JUNCTION        0.72          0.280        2.260
  WS02004411           JUNCTION        0.69          0.206        2.324
  WS02004412           JUNCTION        0.62          0.095        2.215
  WS02004413           JUNCTION        1.07          0.139        2.061
  WS02006109           JUNCTION        2.14          1.820        0.000
  WS02006110           JUNCTION        1.91          1.466        0.384
  WS02006111           JUNCTION        1.05          0.875        0.995
  WS02006112           JUNCTION        1.95          1.317        0.363
  WS02006113           JUNCTION        1.06          1.067        0.863
  WS02006115           JUNCTION        1.43          0.892        1.358
  WS02006116           JUNCTION        1.44          0.841        1.449
  WS02006228           JUNCTION        2.13          2.200        0.000
  WS02006229           JUNCTION        0.71          1.064        0.006
  WS02006230           JUNCTION        1.69          1.570        0.000
  WS02006231           JUNCTION        1.92          1.481        0.049
  WS02006232           JUNCTION        2.05          1.480        0.000
  WS02006234           JUNCTION        1.93          1.240        0.000
  WS02006235           JUNCTION        1.96          1.235        0.055
  WS02006238           JUNCTION        1.97          1.229        0.201
  WS02006239           JUNCTION        1.94          1.061        0.229
  WS02006240           JUNCTION        1.94          1.135        0.255
  WS02006242           JUNCTION        2.01          0.820        0.000
  WS02006243           JUNCTION        1.92          0.770        0.000
  WS02006245           JUNCTION        1.91          0.572        0.278
  WS02006247           JUNCTION        1.91          0.527        0.233
  WS02006248           JUNCTION        1.89          0.380        0.000
  WS02006249           JUNCTION        1.89          0.390        0.000
  WS02006251           JUNCTION        1.86          1.180        0.000
  WS02006252           JUNCTION        2.16          1.100        0.000
  WS02006253           JUNCTION        1.86          2.345        0.135
  WS02006256           JUNCTION        7.17          2.050        0.000
  WS02006280           JUNCTION        0.63          0.718        0.062
  WS02006284           JUNCTION        0.55          0.688        0.112
  WS02006287           JUNCTION        0.47          0.749        0.141
  YS02001580           JUNCTION        0.46          0.450        0.000
  YS02001583           JUNCTION        0.46          0.500        0.000
  YS02001586           JUNCTION        0.59          0.510        0.000
  YS02001590           JUNCTION        0.66          0.750        0.000
  YS02001593           JUNCTION        0.65          0.785        0.055
  YS02001596           JUNCTION        0.75          1.033        0.037
  YS02001600           JUNCTION        0.88          1.190        0.000
  YS02001601           JUNCTION        1.25          1.440        0.000
  YS02001602           JUNCTION        1.11          1.270        0.000
  YS02001605           JUNCTION        1.06          1.180        0.000
  YS02001607           JUNCTION        0.62          0.646        0.034
  YS02001610           JUNCTION        0.65          0.680        0.000
  YS02001613           JUNCTION        0.62          0.698        0.002
  YS02001616           JUNCTION        0.58          0.610        0.000
  YS02001619           JUNCTION        0.56          0.610        0.000
  YS02001622           JUNCTION        0.56          0.620        0.000
  YS02001625           JUNCTION        0.72          0.780        0.000
  YS02001629           JUNCTION        0.52          0.470        0.000
  YS02001633           JUNCTION        0.74          1.013        0.047
  YS02001641           JUNCTION        0.68          0.957        0.143
  YS02001644           JUNCTION        0.65          0.920        0.000
  YS02001647           JUNCTION        0.47          0.749        0.151
  YS02001649           JUNCTION        0.57          0.966        0.084
  YS02001652           JUNCTION        0.40          0.844        0.286
  YS02001655           JUNCTION        0.24          0.916        0.284
  YS02001658           JUNCTION        0.07          0.833        0.467
  YS02001661           JUNCTION        0.01          0.432        0.958
  YS02001748           JUNCTION        0.01          0.802        0.388
  YS02001751           JUNCTION        0.13          0.906        0.294
  YS02001754           JUNCTION        0.29          0.839        0.311
  YS02001757           JUNCTION        0.63          1.058        0.152
  YS02001759           JUNCTION        0.53          1.007        0.203
  YS02001762           JUNCTION        0.50          0.977        0.173
  YS02001765           JUNCTION        0.45          0.946        0.154
  YS02001767           JUNCTION        0.42          0.921        0.109
  YS02001770           JUNCTION        0.40          0.920        0.000
  YS02001774           JUNCTION        0.48          1.012        0.038
  YS02001779           JUNCTION        0.29          0.680        0.000
  YS02001783           JUNCTION        0.44          0.521        1.079
  YS02001784           JUNCTION        0.42          0.392        1.098
  YS02001786           JUNCTION        0.33          0.192        1.238
  YS02001882           JUNCTION        0.39          0.830        0.000
  YS02001884           JUNCTION        0.40          0.806        0.064
  YS02001887           JUNCTION        0.43          0.834        0.116
  YS02001890           JUNCTION        0.44          0.760        0.000
  YS02001895           JUNCTION        0.38          0.639        0.111
  YS02001898           JUNCTION        0.37          0.668        0.072
  YS02001901           JUNCTION        0.42          0.729        0.141
  YS02001904           JUNCTION        0.41          0.665        0.185
  YS02001907           JUNCTION        0.61          0.950        0.000
  YS02001910           JUNCTION        0.47          0.988        0.112
  YS02001915           JUNCTION        0.39          0.941        0.059
  YS02001918           JUNCTION        0.32          0.810        0.000
  YS02001920           JUNCTION        0.33          1.140        0.000
  YS02001923           JUNCTION        0.01          0.820        0.000
  YS02001926           JUNCTION        0.02          0.900        0.000
  YS02001929           JUNCTION        0.01          0.780        0.000
  YS02006553           JUNCTION        0.62          0.992        0.198
  YS02006556           JUNCTION        0.53          0.956        0.394
  YS02006558           JUNCTION        0.53          0.946        0.454
  YS02006561           JUNCTION        0.28          0.193        0.957
  YS02163301           JUNCTION        0.72          0.926        0.104
  YS02163601           JUNCTION        0.76          1.044        0.036
  YS02164001           JUNCTION        0.68          0.961        0.139
  YSB1154              JUNCTION        0.70          1.206        0.194
  YSB1171              JUNCTION        0.71          1.100        0.000
  YSB1174              JUNCTION        0.63          1.101        0.149
  YSB6556              JUNCTION        0.58          1.059        0.041
  
  
  *********************
  Node Flooding Summary
  *********************
  
  Flooding refers to all water that overflows a node, whether it ponds or not.
  --------------------------------------------------------------------------
                                                             Total   Maximum
                                 Maximum   Time of Max       Flood    Ponded
                        Hours       Rate    Occurrence      Volume     Depth
  Node                 Flooded       LPS   days hr:min    10^6 ltr    Meters
  --------------------------------------------------------------------------
  HS02004770              0.26    743.76      0  01:50       0.372     0.000
  HS02004777              0.01     54.45      0  01:47       0.001     0.000
  HS02004785              0.01     44.42      0  01:46       0.000     0.000
  HS02004788              0.01    558.06      0  01:46       0.006     0.000
  HS02004792              0.27   1035.88      0  01:51       0.612     0.000
  HS02004799              0.11    184.40      0  01:49       0.033     0.000
  HS02004807              0.01     21.68      0  01:49       0.000     0.000
  HS02004817              0.01     27.69      0  01:47       0.000     0.000
  HS02004824              0.01     25.73      0  01:47       0.000     0.000
  HS02004830              0.01     24.43      0  01:47       0.000     0.000
  HS02004837              0.01    308.38      0  01:47       0.000     0.000
  HS02004842              0.01     77.09      0  01:49       0.001     0.000
  HS02004856              0.01      6.62      0  01:49       0.000     0.000
  HS02004862              0.01    229.46      0  01:49       0.004     0.000
  HS02004870              0.01    376.36      0  01:49       0.002     0.000
  HS02004876              0.01    467.00      0  01:49       0.003     0.000
  HS02004881              0.01    346.93      0  01:49       0.000     0.000
  HS02004901              0.33    503.52      0  01:53       0.446     0.000
  WS02006109              0.32    234.01      0  01:50       0.165     0.000
  WS02006228              0.01      2.32      0  01:49       0.000     0.000
  WS02006230              0.56    559.98      0  01:50       0.739     0.000
  WS02006232              0.14      1.33      0  01:58       0.000     0.000
  WS02006234              0.62    128.63      0  01:49       0.170     0.000
  WS02006242              0.71    234.23      0  01:40       0.305     0.000
  WS02006243              0.01    177.69      0  01:40       0.000     0.000
  WS02006248              0.97    339.03      0  02:18       0.961     0.000
  WS02006249              1.81   1307.13      0  01:49       3.661     0.000
  WS02006251              0.01     84.46      0  01:49       0.000     0.000
  WS02006252              0.37    634.12      0  01:49       0.268     0.000
  WS02006256              0.81    298.55      0  02:20       0.457     0.000
  YS02001580              0.01     86.77      0  01:47       0.000     0.000
  YS02001583              0.01    235.11      0  01:47       0.000     0.000
  YS02001586              0.35    189.71      0  01:54       0.141     0.000
  YS02001590              0.01    101.74      0  01:45       0.000     0.000
  YS02001600              0.01      5.92      0  01:45       0.000     0.000
  YS02001601              0.53    886.10      0  01:52       0.897     0.000
  YS02001602              0.42     61.96      0  02:02       0.086     0.000
  YS02001605              0.01      2.32      0  01:47       0.000     0.000
  YS02001610              0.37    396.88      0  01:54       0.320     0.000
  YS02001616              0.01     82.66      0  01:47       0.000     0.000
  YS02001619              0.01     74.76      0  01:47       0.000     0.000
  YS02001622              0.01    181.99      0  01:47       0.000     0.000
  YS02001625              0.34   1019.15      0  01:53       0.562     0.000
  YS02001629              0.06    307.41      0  01:47       0.020     0.000
  YS02001644              0.05    383.92      0  01:51       0.040     0.000
  YS02001770              0.01     20.35      0  01:50       0.000     0.000
  YS02001779              0.04    497.18      0  01:49       0.013     0.000
  YS02001882              0.01     74.37      0  01:47       0.000     0.000
  YS02001890              0.09    130.20      0  01:50       0.027     0.000
  YS02001907              0.26   1322.50      0  01:50       0.640     0.000
  YS02001918              0.01    217.97      0  01:49       0.003     0.000
  YS02001920              0.01     33.67      0  01:49       0.000     0.000
  YS02001923              0.01     50.13      0  01:49       0.000     0.000
  YS02001926              0.01    565.09      0  01:49       0.004     0.000
  YS02001929              0.01    793.59      0  01:49       0.003     0.000
  YSB1171                 0.19    623.34      0  01:51       0.249     0.000
  
  
  **********************
  Storage Volume Summary
  **********************
  
  --------------------------------------------------------------------------------------------------
                         Average     Avg  Evap Exfil       Maximum     Max    Time of Max    Maximum
                          Volume    Pcnt  Pcnt  Pcnt        Volume    Pcnt     Occurrence    Outflow
  Storage Unit           1000 m3    Full  Loss  Loss       1000 m3    Full    days hr:min        LPS
  --------------------------------------------------------------------------------------------------
  CC-storage               2.180      34     0     0         4.150      65       0  02:17    1783.53
  JK-storage               0.079      27     0     0         0.213      73       0  01:56    2300.00
  XR-storage               0.949      66     0     0         1.111      77       0  08:00     380.00
  
  
  ***********************
  Outfall Loading Summary
  ***********************
  
  -----------------------------------------------------------
                         Flow       Avg       Max       Total
                         Freq      Flow      Flow      Volume
  Outfall Node           Pcnt       LPS       LPS    10^6 ltr
  -----------------------------------------------------------
  CC-1                  30.74    683.00    683.00       4.203
  CC-2                  20.89    683.00    683.00       2.501
  JK-1                   9.84   1000.00   1000.00       1.948
  JK-2                   3.92   1000.00   1000.00       0.748
  WSC                   99.95    624.02   1498.04      13.827
  -----------------------------------------------------------
  System                33.07   3990.02   1498.04      23.226
  
  
  ********************
  Link Flow Summary
  ********************
  
  -----------------------------------------------------------------------------
                                 Maximum  Time of Max   Maximum    Max/    Max/
                                  |Flow|   Occurrence   |Veloc|    Full    Full
  Link                 Type          LPS  days hr:min     m/sec    Flow   Depth
  -----------------------------------------------------------------------------
  1                    CONDUIT   1498.04     0  01:56      3.69    0.52    0.51
  HS02004478WS02006287 CONDUIT   2278.05     0  01:50      2.60    0.64    1.00
  HS02004479HS02004480 CONDUIT    541.04     0  01:48      0.77    0.52    1.00
  HS02004480HS02004478 CONDUIT   2190.50     0  01:47      3.13    9.23    1.00
  HS02004770HS02004777 CONDUIT    853.21     0  01:46      1.22    1.56    1.00
  HS02004777HS02004785 CONDUIT    896.41     0  01:46      1.39    1.10    1.00
  HS02004785HS02004788 CONDUIT    760.81     0  01:46      1.34    5.74    1.00
  HS02004788HS02004792 CONDUIT    810.93     0  02:07      1.43    0.54    1.00
  HS02004792HS02004799 CONDUIT   1536.81     0  01:47      2.20    0.94    1.00
  HS02004799HS02004480 CONDUIT   1741.18     0  01:47      2.49    2.20    1.00
  HS02004802HS02004478 CONDUIT    959.35     0  01:51      1.37    0.85    1.00
  HS02004807HS02004802 CONDUIT    959.33     0  01:51      1.37    1.83    1.00
  HS02004817HS02004807 CONDUIT    599.43     0  01:52      0.86    0.35    1.00
  HS02004817HS02004824 CONDUIT    598.97     0  01:52      0.86    0.27    1.00
  HS02004824HS02004830 CONDUIT    772.66     0  01:47      1.11    1.01    1.00
  HS02004830HS02004837 CONDUIT    775.93     0  01:47      1.18    0.77    1.00
  HS02004837HS02004842 CONDUIT   1043.37     0  01:47      1.49    0.62    1.00
  HS02004842HS02004848 CONDUIT   1047.22     0  01:47      1.67    0.61    1.00
  HS02004848HS02004852 CONDUIT   1197.49     0  01:48      1.75    1.35    1.00
  HS02004852HS02004856 CONDUIT   1199.14     0  01:48      1.71    1.37    1.00
  HS02004856HS02004862 CONDUIT   1329.83     0  01:48      1.93    1.33    1.00
  HS02004862HS02004870 CONDUIT   1460.19     0  01:49      2.20    1.58    1.00
  HS02004870HS02004876 CONDUIT   1270.40     0  01:49      1.81    0.84    1.00
  HS02004876HS02004881 CONDUIT   1439.78     0  01:49      2.10   15.31    1.00
  HS02004881HS02006253 CONDUIT   1552.40     0  01:49      2.31    0.30    1.00
  HS02004901HS02004770 CONDUIT    265.68     0  02:02      0.38    1.00    1.00
  WS02001211WS02001212 CONDUIT    216.02     0  01:52      0.54    0.17    0.69
  WS02001212WS02001213 CONDUIT    228.40     0  01:54      1.04    0.35    0.56
  WS02001213WS02003059 CONDUIT    219.24     0  02:29      0.47    0.36    0.89
  WS02003059WS02003060 CONDUIT    224.61     0  03:14      0.67    0.15    0.81
  WS02003060WS02003069 CONDUIT   1496.71     0  01:53      2.09    0.59    0.61
  WS02003066WSF200     CONDUIT   1282.39     0  01:52      3.43    0.22    0.38
  WS02003067WS02003066 CONDUIT   1283.62     0  01:50      2.02    0.41    0.56
  WS02003069WS02003072 CONDUIT   1496.54     0  01:54      1.89    0.72    0.66
  WS02003072WS02003073 CONDUIT   1496.67     0  01:55      2.05    3.23    0.62
  WS02004138WS02004139 CONDUIT    190.82     0  00:29      2.15    0.04    0.42
  WS02004139WS02001211 CONDUIT    226.63     0  01:49      0.54    0.29    0.61
  WS02004401WS02004402 CONDUIT   1282.76     0  01:50      1.63    1.54    1.00
  WS02004402WS02004403 CONDUIT   1282.53     0  01:50      1.63    1.84    1.00
  WS02004403WS02004404 CONDUIT   1282.97     0  01:50      1.63    0.93    1.00
  WS02004404WS02004405 CONDUIT   1282.82     0  01:50      1.63   12.57    1.00
  WS02004405WS02004406 CONDUIT   1282.37     0  01:50      1.63    2.53    1.00
  WS02004406WS02004407 CONDUIT   1282.79     0  01:50      1.93    0.57    0.95
  WS02004407WS02004409 CONDUIT   1282.38     0  01:51      1.98    0.45    0.95
  WS02004409WS02004410 CONDUIT   1282.72     0  01:50      1.63    1.66    1.00
  WS02004410WS02004411 CONDUIT   1282.66     0  01:51      1.63    1.75    1.00
  WS02004411WS02004412 CONDUIT   1282.58     0  01:51      1.63    1.82    1.00
  WS02004412WS02004413 CONDUIT   1282.65     0  01:51      1.63    0.86    1.00
  WS02004413WS02003067 CONDUIT   1282.67     0  01:51      1.99    0.55    0.76
  WS02006109WS02006110 CONDUIT   1122.67     0  02:06      2.23    2.16    1.00
  WS02006110WS02006113 CONDUIT   1122.81     0  02:06      2.23    1.02    1.00
  WS02006111WS02006112 CONDUIT   1122.94     0  02:06      2.23    0.53    1.00
  WS02006112WS02006115 CONDUIT   1282.08     0  01:50      1.63    0.76    1.00
  WS02006113WS02006111 CONDUIT   1122.88     0  02:06      2.71    1.35    1.00
  WS02006115WS02006116 CONDUIT   1282.56     0  01:50      1.63    1.65    1.00
  WS02006116WS02004401 CONDUIT   1282.38     0  01:50      1.63    1.77    1.00
  WS02006228WS02006109 CONDUIT   1274.52     0  01:50      2.54    5.57    1.00
  WS02006229WS02006228 CONDUIT   1275.81     0  01:50      2.54    4.23    1.00
  WS02006230WS02006229 CONDUIT   1002.47     0  01:50      2.60   22.31    1.00
  WS02006231WS02006230 CONDUIT    506.07     0  03:15      1.32    7.68    1.00
  WS02006232WS02006231 CONDUIT    504.76     0  03:15      1.31    1.06    1.00
  WS02006234WS02006232 CONDUIT    502.78     0  03:15      1.41    1.02    1.00
  WS02006235WS02006234 CONDUIT    498.00     0  03:15      1.29    5.25    1.00
  WS02006238WS02006235 CONDUIT    418.99     0  03:32      1.45    0.94    1.00
  WS02006239WS02006238 CONDUIT    418.88     0  03:32      1.12    1.34    1.00
  WS02006240WS02006239 CONDUIT    418.84     0  03:32      1.26    1.32    1.00
  WS02006242WS02006240 CONDUIT    418.78     0  03:32      1.14    1.66    1.00
  WS02006243WS02006242 CONDUIT    418.74     0  03:32      1.34    0.89    1.00
  WS02006245WS02006243 CONDUIT    418.71     0  03:32      1.39    1.24    1.00
  WS02006247WS02006245 CONDUIT    418.66     0  03:32      1.37    3.32    1.00
  WS02006248WS02006247 CONDUIT    418.61     0  03:32      1.42    0.91    1.00
  WS02006249WS02006248 CONDUIT    418.52     0  03:32      1.40    2.29    1.00
  WS02006251WS02006249 CONDUIT   1352.16     0  01:49      3.51    3.90    1.00
  WS02006252WS02006251 CONDUIT    413.73     0  01:45     21.49    1.52    1.00
  WS02006253WS02006251 CONDUIT   1584.44     0  01:49      4.12    4.75    1.00
  WS02006256WS02006235 CONDUIT    288.93     0  00:00      4.23    3.06    1.00
  WS02006280WS02006229 CONDUIT   2278.80     0  01:50      4.35    0.49    1.00
  WS02006284WS02006280 CONDUIT   2276.98     0  01:50      3.02    0.95    1.00
  WS02006287WS02006284 CONDUIT   2276.47     0  01:51      2.90    1.05    1.00
  WSF200WS02003060     CONDUIT   1292.74     0  01:49      2.61    0.29    0.50
  YS02001580YS02001583 CONDUIT    167.63     0  01:47      0.88    0.65    1.00
  YS02001583YS02001586 CONDUIT    213.78     0  01:47      0.95    0.32    1.00
  YS02001586YS02001590 CONDUIT    317.94     0  01:54      1.28    0.56    1.00
  YS02001590YS02001593 CONDUIT    318.08     0  01:59      1.12    2.00    1.00
  YS02001593YS02001596 CONDUIT    318.14     0  02:03      1.73    0.50    1.00
  YS02001596YS02001600 CONDUIT    317.99     0  02:03      1.20    0.62    1.00
  YS02001600YS02001601 CONDUIT    317.90     0  02:07      1.12    0.55    1.00
  YS02001601YS02001602 CONDUIT    575.91     0  01:47      2.04    2.08    1.00
  YS02001602YS02001605 CONDUIT    575.89     0  01:47      2.04   12.19    1.00
  YS02001605YS02001607 CONDUIT    575.67     0  01:47      2.04    3.16    1.00
  YS02001607YS02001610 CONDUIT    539.10     0  01:47      0.72    0.51    1.00
  YS02001610YS02001613 CONDUIT    516.00     0  01:47      0.68    0.59    1.00
  YS02001613YS02001616 CONDUIT    507.77     0  01:47      0.66    0.44    1.00
  YS02001616YS02001619 CONDUIT    486.33     0  01:47      0.67    0.84    1.00
  YS02001619YS02001622 CONDUIT    935.50     0  01:47      1.27    1.38    1.00
  YS02001622YS02001625 CONDUIT    928.02     0  01:47      1.18    0.50    1.00
  YS02001625YS02001629 CONDUIT    918.44     0  01:47      1.17    0.44    1.00
  YS02001629YS02163301 CONDUIT    881.64     0  01:48      1.12    1.09    1.00
  YS02001633YS02163601 CONDUIT   1427.44     0  01:48      1.82    1.50    1.00
  YS02001641YS02001644 CONDUIT   1423.98     0  01:48      1.81    4.60    1.00
  YS02001644YS02001647 CONDUIT   1938.82     0  01:48      2.47    1.14    1.00
  YS02001647YS02001649 CONDUIT   1939.68     0  01:48      2.47    1.02    1.00
  YS02001649YS02001757 CONDUIT   2207.67     0  01:49      2.81    1.34    1.00
  YS02001652YS02001649 CONDUIT    792.56     0  01:51      1.01    0.39    1.00
  YS02001655YS02001652 CONDUIT    792.89     0  01:51      1.48    0.39    1.00
  YS02001658YS02001655 CONDUIT    791.69     0  01:51      2.06    0.34    1.00
  YS02001661YS02001658 CONDUIT    791.35     0  01:51      2.46    0.31    1.00
  YS02001664YS02001661 CONDUIT    814.64     0  01:51      2.48    0.26    0.81
  YS02001745YS02001748 CONDUIT    633.59     0  01:50      2.41    0.24    0.96
  YS02001748YS02001751 CONDUIT    569.50     0  01:51      1.93    0.29    1.00
  YS02001751YS02001754 CONDUIT    571.64     0  01:51      1.58    0.28    1.00
  YS02001754YS02001757 CONDUIT    573.62     0  01:51      0.73    0.23    1.00
  YS02001757CaochengTiaoxuchi CONDUIT   3493.29     0  01:51      4.68    1.51    1.00
  YS02001759YS02001757 CONDUIT   1408.99     0  01:50      1.79    1.00    1.00
  YS02001762YS02001759 CONDUIT    828.78     0  01:50      1.06    0.95    1.00
  YS02001765YS02001762 CONDUIT    827.19     0  01:50      1.05    0.78    1.00
  YS02001767YS02001765 CONDUIT    826.09     0  01:50      1.05    1.04    1.00
  YS02001770YS02001767 CONDUIT    823.62     0  01:50      1.05    3.26    1.00
  YS02001774YS02001770 CONDUIT    540.57     0  01:49      0.69    0.35    1.00
  YS02001779YS02001774 CONDUIT    548.91     0  01:49      0.70    0.28    1.00
  YS02001783YS02001784 CONDUIT   1159.23     0  01:50      2.31    1.60    1.00
  YS02001784YS02001785 CONDUIT   1160.59     0  01:49      2.31    2.70    1.00
  YS02001786YS02001788 CONDUIT   1162.45     0  01:49      2.49    2.24    0.89
  YS02001788YS02001790 CONDUIT   1168.47     0  01:51      2.75    0.86    0.84
  YS02001790YS02001791 CONDUIT   1275.31     0  01:55      3.40    1.39    0.70
  YS02001791YS02001793 CONDUIT   1234.36     0  01:55      6.77    0.53    0.44
  YS02001793JiankangQianchi CONDUIT   1246.38     0  01:53      2.50    0.10    0.65
  YS02001882YS02001884 CONDUIT    109.58     0  01:47      0.14    0.13    1.00
  YS02001884YS02001887 CONDUIT    152.10     0  01:47      0.19    0.20    1.00
  YS02001887YS02001890 CONDUIT    653.14     0  01:50      0.83    1.12    1.00
  YS02001890YS02001895 CONDUIT    598.53     0  01:48      0.76    0.28    1.00
  YS02001895YS02001898 CONDUIT    603.22     0  01:48      0.77    1.05    1.00
  YS02001898YS02001901 CONDUIT    608.49     0  01:48      0.77    0.39    1.00
  YS02001901YS02001904 CONDUIT    609.02     0  01:48      0.78    0.94    1.00
  YS02001904YS02001907 CONDUIT    608.96     0  01:48      0.78    0.21    1.00
  YS02001907YS02006553 CONDUIT    795.61     0  02:05      0.88    0.94    1.00
  YS02001910YS02001907 CONDUIT   1127.54     0  01:50      1.44    0.64    1.00
  YS02001915YS02001910 CONDUIT   1127.15     0  01:50      1.44    0.56    1.00
  YS02001918YS02001915 CONDUIT    723.54     0  01:48      0.94    0.40    1.00
  YS02001920YS02001918 CONDUIT    693.73     0  01:48      0.88    0.67    1.00
  YS02001923YS02001920 CONDUIT    714.59     0  01:48      0.97    0.32    1.00
  YS02001926YS02001923 CONDUIT    946.98     0  01:48      1.40    1.35    1.00
  YS02001929YS02001926 CONDUIT    815.48     0  01:49      1.23    0.39    1.00
  YS02006553YS02006556 CONDUIT    795.21     0  02:05      1.01    0.68    1.00
  YS02006556YS02006558 CONDUIT    797.10     0  02:05      1.01    0.63    1.00
  YS02006558YS02006561 CONDUIT   1171.24     0  01:48      4.14    2.59    1.00
  YS02006561YS02001783 CONDUIT   1159.04     0  01:50      2.31    0.60    1.00
  YS02163301YS02001633 CONDUIT    880.97     0  01:48      1.12    0.83    1.00
  YS02163601YS02164001 CONDUIT   1426.27     0  01:48      1.82    1.26    1.00
  YS02164001YS02001641 CONDUIT   1424.50     0  01:48      1.81    1.95    1.00
  YSB1154YSB6556       CONDUIT    336.71     0  01:51      0.87    0.61    1.00
  YSB1171HS02004479    CONDUIT    543.14     0  01:48      1.08    0.36    1.00
  YSB1174YSB1171       CONDUIT    305.96     0  01:50      0.80    0.47    1.00
  YSB6556YSB1171       CONDUIT    337.35     0  01:51      0.88    0.35    1.00
  CC-R1                PUMP       683.00     0  00:00              1.00
  CC-R2                PUMP       683.00     0  00:00              1.00
  CC-S1                PUMP       200.00     0  00:00              1.00
  CC-S2                PUMP       200.00     0  00:00              1.00
  JK-R1                PUMP      1000.00     0  00:00              1.00
  JK-R2                PUMP      1000.00     0  00:00              1.00
  JK-S                 PUMP       300.00     0  00:00              1.00
  XR-1                 PUMP        95.00     0  00:00              1.00
  XR-2                 PUMP        95.00     0  00:00              1.00
  XR-3                 PUMP        95.00     0  00:00              1.00
  XR-4                 PUMP        95.00     0  00:00              1.00
  
  
  ***************************
  Flow Classification Summary
  ***************************
  
  -------------------------------------------------------------------------------------
                      Adjusted    ---------- Fraction of Time in Flow Class ---------- 
                       /Actual         Up    Down  Sub   Sup   Up    Down  Norm  Inlet 
  Conduit               Length    Dry  Dry   Dry   Crit  Crit  Crit  Crit  Ltd   Ctrl  
  -------------------------------------------------------------------------------------
  1                       1.00   0.00  0.00  0.00  0.00  1.00  0.00  0.00  0.35  0.00
  HS02004478WS02006287    1.00   0.09  0.00  0.00  0.64  0.27  0.00  0.00  0.61  0.00
  HS02004479HS02004480    1.00   0.03  0.00  0.00  0.97  0.00  0.00  0.00  0.12  0.00
  HS02004480HS02004478    1.00   0.08  0.00  0.00  0.56  0.00  0.00  0.37  0.00  0.00
  HS02004770HS02004777    1.00   0.00  0.07  0.00  0.93  0.00  0.00  0.00  0.03  0.00
  HS02004777HS02004785    1.00   0.00  0.00  0.00  1.00  0.00  0.00  0.00  0.13  0.00
  HS02004785HS02004788    1.00   0.00  0.00  0.00  1.00  0.00  0.00  0.00  0.00  0.00
  HS02004788HS02004792    1.00   0.00  0.00  0.00  0.99  0.01  0.00  0.00  0.91  0.00
  HS02004792HS02004799    1.00   0.00  0.00  0.00  0.99  0.01  0.00  0.00  0.88  0.00
  HS02004799HS02004480    1.00   0.00  0.03  0.00  0.91  0.00  0.06  0.00  0.00  0.00
  HS02004802HS02004478    1.00   0.07  0.00  0.00  0.92  0.00  0.00  0.00  0.03  0.00
  HS02004807HS02004802    1.00   0.07  0.00  0.00  0.92  0.00  0.00  0.01  0.00  0.00
  HS02004817HS02004807    1.00   0.00  0.07  0.00  0.93  0.00  0.00  0.00  0.01  0.00
  HS02004817HS02004824    1.00   0.00  0.00  0.00  1.00  0.00  0.00  0.00  0.84  0.00
  HS02004824HS02004830    1.00   0.00  0.00  0.00  1.00  0.00  0.00  0.00  0.01  0.00
  HS02004830HS02004837    1.00   0.00  0.00  0.00  1.00  0.00  0.00  0.00  0.90  0.00
  HS02004837HS02004842    1.00   0.00  0.00  0.00  1.00  0.00  0.00  0.00  0.11  0.00
  HS02004842HS02004848    1.00   0.00  0.07  0.00  0.93  0.00  0.00  0.00  0.58  0.00
  HS02004848HS02004852    1.00   0.07  0.00  0.00  0.93  0.00  0.00  0.00  0.72  0.00
  HS02004852HS02004856    1.00   0.07  0.01  0.00  0.92  0.00  0.00  0.00  0.69  0.00
  HS02004856HS02004862    1.00   0.00  0.09  0.00  0.91  0.00  0.00  0.00  0.75  0.00
  HS02004862HS02004870    1.00   0.00  0.00  0.00  1.00  0.00  0.00  0.00  0.04  0.00
  HS02004870HS02004876    1.00   0.00  0.00  0.00  0.99  0.01  0.00  0.00  0.87  0.00
  HS02004876HS02004881    1.00   0.02  0.00  0.00  0.76  0.23  0.00  0.00  0.00  0.00
  HS02004881HS02006253    1.00   0.03  0.01  0.00  0.51  0.02  0.00  0.43  0.23  0.00
  HS02004901HS02004770    1.00   0.07  0.00  0.00  0.93  0.00  0.00  0.00  0.00  0.00
  WS02001211WS02001212    1.00   0.00  0.02  0.00  0.98  0.00  0.00  0.00  0.00  0.00
  WS02001212WS02001213    1.00   0.02  0.00  0.00  0.52  0.00  0.45  0.00  0.00  0.00
  WS02001213WS02003059    1.00   0.00  0.00  0.00  0.99  0.00  0.00  0.00  0.00  0.00
  WS02003059WS02003060    1.00   0.00  0.00  0.00  1.00  0.00  0.00  0.00  0.03  0.00
  WS02003060WS02003069    1.00   0.00  0.00  0.00  0.99  0.01  0.00  0.00  0.50  0.00
  WS02003066WSF200        1.00   0.07  0.00  0.00  0.00  0.93  0.00  0.00  0.62  0.00
  WS02003067WS02003066    1.00   0.06  0.01  0.00  0.93  0.00  0.00  0.00  0.00  0.00
  WS02003069WS02003072    1.00   0.00  0.00  0.00  1.00  0.00  0.00  0.00  0.64  0.00
  WS02003072WS02003073    1.00   0.00  0.00  0.00  0.00  0.00  0.00  1.00  0.00  0.00
  WS02004138WS02004139    1.00   0.00  0.00  0.00  0.98  0.01  0.00  0.01  0.98  0.00
  WS02004139WS02001211    1.00   0.00  0.00  0.00  0.99  0.00  0.00  0.00  0.00  0.00
  WS02004401WS02004402    1.00   0.02  0.00  0.00  0.98  0.00  0.00  0.00  0.00  0.00
  WS02004402WS02004403    1.00   0.02  0.00  0.00  0.98  0.00  0.00  0.00  0.00  0.00
  WS02004403WS02004404    1.00   0.00  0.03  0.00  0.97  0.00  0.00  0.00  0.00  0.00
  WS02004404WS02004405    1.00   0.00  0.00  0.00  1.00  0.00  0.00  0.00  0.01  0.00
  WS02004405WS02004406    1.00   0.00  0.00  0.00  1.00  0.00  0.00  0.00  0.00  0.00
  WS02004406WS02004407    1.00   0.00  0.04  0.00  0.96  0.00  0.00  0.00  0.00  0.00
  WS02004407WS02004409    1.00   0.04  0.00  0.00  0.96  0.00  0.00  0.00  0.84  0.00
  WS02004409WS02004410    1.00   0.04  0.00  0.00  0.96  0.00  0.00  0.00  0.03  0.00
  WS02004410WS02004411    1.00   0.04  0.00  0.00  0.96  0.00  0.00  0.00  0.01  0.00
  WS02004411WS02004412    1.00   0.04  0.00  0.00  0.96  0.00  0.00  0.00  0.00  0.00
  WS02004412WS02004413    1.00   0.04  0.00  0.00  0.96  0.00  0.00  0.00  0.01  0.00
  WS02004413WS02003067    1.00   0.04  0.02  0.00  0.00  0.00  0.94  0.00  0.00  0.00
  WS02006109WS02006110    1.00   0.00  0.01  0.00  0.98  0.00  0.01  0.00  0.00  0.00
  WS02006110WS02006113    1.00   0.01  0.01  0.00  0.98  0.00  0.00  0.00  0.00  0.00
  WS02006111WS02006112    1.00   0.02  0.00  0.00  0.98  0.00  0.00  0.00  0.78  0.00
  WS02006112WS02006115    1.00   0.02  0.00  0.00  0.97  0.00  0.00  0.00  0.00  0.00
  WS02006113WS02006111    1.00   0.02  0.00  0.00  0.27  0.71  0.00  0.00  0.07  0.00
  WS02006115WS02006116    1.00   0.02  0.00  0.00  0.97  0.00  0.00  0.01  0.00  0.00
  WS02006116WS02004401    1.00   0.02  0.00  0.00  0.98  0.00  0.00  0.00  0.00  0.00
  WS02006228WS02006109    1.00   0.00  0.00  0.00  1.00  0.00  0.00  0.00  0.00  0.00
  WS02006229WS02006228    1.00   0.00  0.00  0.00  0.99  0.00  0.00  0.01  0.00  0.00
  WS02006230WS02006229    1.00   0.00  0.00  0.00  0.99  0.00  0.00  0.01  0.04  0.00
  WS02006231WS02006230    1.00   0.00  0.00  0.00  0.54  0.00  0.46  0.00  0.00  0.00
  WS02006232WS02006231    1.00   0.00  0.00  0.00  0.99  0.00  0.00  0.00  0.00  0.00
  WS02006234WS02006232    1.00   0.00  0.00  0.00  1.00  0.00  0.00  0.00  0.04  0.00
  WS02006235WS02006234    1.00   0.00  0.00  0.00  0.94  0.00  0.06  0.00  0.00  0.00
  WS02006238WS02006235    1.00   0.00  0.00  0.00  1.00  0.00  0.00  0.00  0.00  0.00
  WS02006239WS02006238    1.00   0.00  0.00  0.00  1.00  0.00  0.00  0.00  0.15  0.00
  WS02006240WS02006239    1.00   0.00  0.00  0.00  0.77  0.00  0.00  0.23  0.03  0.00
  WS02006242WS02006240    1.00   0.00  0.00  0.00  1.00  0.00  0.00  0.00  0.00  0.00
  WS02006243WS02006242    1.00   0.00  0.00  0.00  0.99  0.00  0.00  0.00  0.63  0.00
  WS02006245WS02006243    1.00   0.00  0.00  0.00  0.87  0.00  0.00  0.13  0.00  0.00
  WS02006247WS02006245    1.00   0.00  0.00  0.00  0.99  0.00  0.00  0.01  0.00  0.00
  WS02006248WS02006247    1.00   0.00  0.00  0.00  1.00  0.00  0.00  0.00  0.60  0.00
  WS02006249WS02006248    1.00   0.00  0.00  0.00  0.61  0.00  0.39  0.00  0.00  0.00
  WS02006251WS02006249    1.00   0.00  0.00  0.00  1.00  0.00  0.00  0.00  0.58  0.00
  WS02006252WS02006251    1.00   0.00  0.32  0.00  0.35  0.00  0.33  0.00  0.00  0.00
  WS02006253WS02006251    1.00   0.00  0.00  0.00  0.98  0.00  0.02  0.00  0.01  0.00
  WS02006256WS02006235    1.00   0.00  0.00  0.00  0.98  0.02  0.00  0.00  0.00  0.00
  WS02006280WS02006229    1.00   0.08  0.00  0.00  0.19  0.08  0.00  0.65  0.03  0.00
  WS02006284WS02006280    1.00   0.08  0.00  0.00  0.13  0.01  0.00  0.79  0.00  0.00
  WS02006287WS02006284    1.00   0.06  0.03  0.00  0.45  0.46  0.00  0.00  0.66  0.00
  WSF200WS02003060        1.00   0.00  0.07  0.00  0.48  0.45  0.00  0.00  0.56  0.00
  YS02001580YS02001583    1.00   0.18  0.56  0.00  0.26  0.00  0.00  0.00  0.70  0.00
  YS02001583YS02001586    1.00   0.26  0.39  0.00  0.35  0.00  0.00  0.00  0.70  0.00
  YS02001586YS02001590    1.00   0.07  0.00  0.00  0.63  0.03  0.00  0.27  0.35  0.00
  YS02001590YS02001593    1.00   0.07  0.00  0.00  0.15  0.00  0.78  0.00  0.00  0.00
  YS02001593YS02001596    1.00   0.08  0.00  0.00  0.17  0.01  0.00  0.74  0.02  0.00
  YS02001596YS02001600    1.00   0.08  0.00  0.00  0.29  0.02  0.00  0.61  0.06  0.00
  YS02001600YS02001601    1.00   0.07  0.00  0.00  0.92  0.00  0.00  0.00  0.62  0.00
  YS02001601YS02001602    1.00   0.07  0.00  0.00  0.92  0.00  0.00  0.00  0.00  0.00
  YS02001602YS02001605    1.00   0.08  0.00  0.00  0.92  0.00  0.00  0.00  0.00  0.00
  YS02001605YS02001607    1.00   0.08  0.00  0.00  0.92  0.00  0.00  0.00  0.00  0.00
  YS02001607YS02001610    1.00   0.08  0.00  0.00  0.92  0.00  0.00  0.00  0.02  0.00
  YS02001610YS02001613    1.00   0.07  0.00  0.00  0.93  0.00  0.00  0.00  0.01  0.00
  YS02001613YS02001616    1.00   0.07  0.00  0.00  0.93  0.00  0.00  0.00  0.01  0.00
  YS02001616YS02001619    1.00   0.07  0.00  0.00  0.93  0.00  0.00  0.00  0.00  0.00
  YS02001619YS02001622    1.00   0.07  0.00  0.00  0.93  0.00  0.00  0.00  0.30  0.00
  YS02001622YS02001625    1.00   0.07  0.00  0.00  0.93  0.00  0.00  0.00  0.05  0.00
  YS02001625YS02001629    1.00   0.07  0.03  0.00  0.20  0.00  0.70  0.00  0.00  0.00
  YS02001629YS02163301    1.00   0.09  0.00  0.00  0.91  0.00  0.00  0.00  0.00  0.00
  YS02001633YS02163601    1.00   0.00  0.01  0.00  0.99  0.00  0.00  0.00  0.15  0.00
  YS02001641YS02001644    1.00   0.00  0.00  0.00  1.00  0.00  0.00  0.00  0.00  0.00
  YS02001644YS02001647    1.00   0.00  0.10  0.00  0.90  0.00  0.00  0.00  0.00  0.00
  YS02001647YS02001649    1.00   0.00  0.10  0.00  0.52  0.38  0.00  0.00  0.58  0.00
  YS02001649YS02001757    1.00   0.00  0.00  0.00  0.67  0.32  0.00  0.00  0.44  0.00
  YS02001652YS02001649    1.00   0.00  0.00  0.00  0.97  0.03  0.00  0.00  0.75  0.00
  YS02001655YS02001652    1.00   0.00  0.00  0.00  0.25  0.02  0.00  0.72  0.07  0.00
  YS02001658YS02001655    1.00   0.00  0.08  0.00  0.58  0.34  0.00  0.00  0.71  0.00
  YS02001661YS02001658    1.00   0.08  0.00  0.00  0.37  0.55  0.00  0.00  0.73  0.00
  YS02001664YS02001661    1.00   0.07  0.00  0.00  0.74  0.19  0.00  0.00  0.86  0.00
  YS02001745YS02001748    1.00   0.00  0.00  0.00  0.10  0.02  0.00  0.88  0.05  0.00
  YS02001748YS02001751    1.00   0.00  0.00  0.00  0.74  0.26  0.00  0.00  0.79  0.00
  YS02001751YS02001754    1.00   0.00  0.00  0.00  0.20  0.01  0.00  0.79  0.04  0.00
  YS02001754YS02001757    1.00   0.00  0.00  0.00  1.00  0.00  0.00  0.00  0.83  0.00
  YS02001757CaochengTiaoxuchi    1.00   0.00  0.00  0.00  0.96  0.04  0.00  0.00  0.76  0.00
  YS02001759YS02001757    1.00   0.00  0.00  0.00  1.00  0.00  0.00  0.00  0.62  0.00
  YS02001762YS02001759    1.00   0.00  0.00  0.00  1.00  0.00  0.00  0.00  0.05  0.00
  YS02001765YS02001762    1.00   0.00  0.00  0.00  1.00  0.00  0.00  0.00  0.74  0.00
  YS02001767YS02001765    1.00   0.00  0.00  0.00  1.00  0.00  0.00  0.00  0.00  0.00
  YS02001770YS02001767    1.00   0.00  0.00  0.00  1.00  0.00  0.00  0.00  0.00  0.00
  YS02001774YS02001770    1.00   0.00  0.07  0.00  0.82  0.00  0.11  0.00  0.03  0.00
  YS02001779YS02001774    1.00   0.00  0.00  0.00  1.00  0.00  0.00  0.00  0.80  0.00
  YS02001783YS02001784    1.00   0.00  0.11  0.00  0.89  0.00  0.00  0.00  0.56  0.00
  YS02001784YS02001785    1.00   0.00  0.00  0.00  1.00  0.00  0.00  0.00  0.17  0.00
  YS02001786YS02001788    1.00   0.00  0.00  0.00  0.66  0.34  0.00  0.00  0.00  0.00
  YS02001788YS02001790    1.00   0.00  0.00  0.00  0.13  0.87  0.00  0.00  0.83  0.00
  YS02001790YS02001791    1.00   0.00  0.00  0.00  0.01  0.99  0.00  0.00  0.16  0.00
  YS02001791YS02001793    1.00   0.00  0.00  0.00  0.00  1.00  0.00  0.00  0.01  0.00
  YS02001793JiankangQianchi    1.00   0.00  0.00  0.00  0.97  0.03  0.00  0.00  0.97  0.00
  YS02001882YS02001884    1.00   0.09  0.00  0.00  0.91  0.00  0.00  0.00  0.00  0.00
  YS02001884YS02001887    1.00   0.04  0.02  0.00  0.93  0.00  0.00  0.00  0.00  0.00
  YS02001887YS02001890    1.00   0.00  0.00  0.00  0.97  0.00  0.03  0.00  0.00  0.00
  YS02001890YS02001895    1.00   0.00  0.09  0.00  0.91  0.00  0.00  0.00  0.00  0.00
  YS02001895YS02001898    1.00   0.09  0.00  0.00  0.89  0.00  0.02  0.00  0.00  0.00
  YS02001898YS02001901    1.00   0.09  0.00  0.00  0.91  0.00  0.00  0.00  0.01  0.00
  YS02001901YS02001904    1.00   0.09  0.00  0.00  0.91  0.00  0.00  0.00  0.00  0.00
  YS02001904YS02001907    1.00   0.00  0.09  0.00  0.91  0.00  0.00  0.00  0.00  0.00
  YS02001907YS02006553    1.00   0.00  0.02  0.00  0.98  0.00  0.00  0.00  0.00  0.00
  YS02001910YS02001907    1.00   0.00  0.00  0.00  0.97  0.00  0.00  0.02  0.12  0.00
  YS02001915YS02001910    1.00   0.00  0.00  0.00  0.98  0.02  0.00  0.00  0.16  0.00
  YS02001918YS02001915    1.00   0.00  0.00  0.00  0.98  0.02  0.00  0.00  0.77  0.00
  YS02001920YS02001918    1.00   0.00  0.00  0.00  1.00  0.00  0.00  0.00  0.00  0.00
  YS02001923YS02001920    1.00   0.00  0.00  0.00  1.00  0.00  0.00  0.00  0.94  0.00
  YS02001926YS02001923    1.00   0.00  0.05  0.00  0.07  0.00  0.88  0.00  0.00  0.00
  YS02001929YS02001926    1.00   0.00  0.07  0.00  0.93  0.00  0.00  0.00  0.83  0.00
  YS02006553YS02006556    1.00   0.01  0.00  0.00  0.99  0.00  0.00  0.00  0.03  0.00
  YS02006556YS02006558    1.00   0.00  0.00  0.00  1.00  0.00  0.00  0.00  0.00  0.00
  YS02006558YS02006561    1.00   0.10  0.00  0.00  0.06  0.84  0.00  0.00  0.19  0.00
  YS02006561YS02001783    1.00   0.10  0.00  0.00  0.10  0.80  0.00  0.00  0.70  0.00
  YS02163301YS02001633    1.00   0.00  0.09  0.00  0.91  0.00  0.00  0.00  0.00  0.00
  YS02163601YS02164001    1.00   0.00  0.05  0.00  0.95  0.00  0.00  0.00  0.00  0.00
  YS02164001YS02001641    1.00   0.01  0.05  0.00  0.95  0.00  0.00  0.00  0.06  0.00
  YSB1154YSB6556          1.00   0.07  0.00  0.00  0.93  0.00  0.00  0.00  0.02  0.00
  YSB1171HS02004479       1.00   0.03  0.00  0.00  0.96  0.00  0.00  0.01  0.10  0.00
  YSB1174YSB1171          1.00   0.04  0.02  0.00  0.94  0.00  0.00  0.00  0.00  0.00
  YSB6556YSB1171          1.00   0.03  0.04  0.00  0.93  0.00  0.00  0.00  0.00  0.00
  
  
  *************************
  Conduit Surcharge Summary
  *************************
  
  ----------------------------------------------------------------------------
                                                           Hours        Hours 
                         --------- Hours Full --------   Above Full   Capacity
  Conduit                Both Ends  Upstream  Dnstream   Normal Flow   Limited
  ----------------------------------------------------------------------------
  HS02004478WS02006287        0.38      0.38      0.53      0.01         0.01
  HS02004479HS02004480        0.54      0.54      0.55      0.01         0.01
  HS02004480HS02004478        0.48      0.53      0.48      1.54         0.48
  HS02004770HS02004777        0.45      0.46      0.46      0.09         0.07
  HS02004777HS02004785        0.41      0.41      0.46      0.01         0.01
  HS02004785HS02004788        0.40      0.41      0.40      1.22         0.37
  HS02004788HS02004792        0.40      0.40      0.50      0.01         0.01
  HS02004792HS02004799        0.50      0.50      0.60      0.01         0.01
  HS02004799HS02004480        0.53      0.53      0.60      0.68         0.01
  HS02004802HS02004478        0.49      0.49      0.54      0.01         0.01
  HS02004807HS02004802        0.52      0.52      0.54      0.16         0.16
  HS02004817HS02004807        0.52      0.52      1.02      0.01         0.01
  HS02004817HS02004824        0.40      0.40      1.02      0.01         0.01
  HS02004824HS02004830        0.38      0.38      0.40      0.01         0.01
  HS02004830HS02004837        0.34      0.34      0.38      0.01         0.01
  HS02004837HS02004842        0.34      0.34      0.46      0.01         0.01
  HS02004842HS02004848        0.32      0.32      0.46      0.01         0.01
  HS02004848HS02004852        0.32      0.32      0.34      0.02         0.01
  HS02004852HS02004856        0.34      0.34      0.36      0.02         0.01
  HS02004856HS02004862        0.32      0.33      0.36      0.01         0.01
  HS02004862HS02004870        0.35      0.36      0.37      0.03         0.03
  HS02004870HS02004876        0.37      0.37      0.44      0.01         0.01
  HS02004876HS02004881        0.43      0.44      0.43      1.27         0.43
  HS02004881HS02006253        0.43      0.43      1.86      0.01         0.01
  HS02004901HS02004770        0.46      0.46      0.46      0.01         0.01
  WS02003072WS02003073        0.01      0.01      0.01      2.60         0.01
  WS02004401WS02004402        1.46      1.46      1.48      1.19         1.19
  WS02004402WS02004403        1.48      1.48      1.49      1.47         1.45
  WS02004403WS02004404        1.49      1.49      1.64      0.01         0.02
  WS02004404WS02004405        1.63      1.64      1.63      3.00         1.63
  WS02004405WS02004406        1.60      1.63      1.60      1.94         1.60
  WS02004406WS02004407        0.01      0.01      1.60      0.01         0.01
  WS02004407WS02004409        0.01      0.01      0.80      0.01         0.01
  WS02004409WS02004410        0.72      0.80      0.72      1.42         0.72
  WS02004410WS02004411        0.69      0.72      0.69      1.45         0.69
  WS02004411WS02004412        0.62      0.69      0.62      1.46         0.62
  WS02004412WS02004413        0.62      0.62      1.07      0.01         0.01
  WS02004413WS02003067        0.01      0.01      1.07      0.01         0.01
  WS02006109WS02006110        1.91      1.91      2.22      1.92         0.01
  WS02006110WS02006113        1.06      1.06      2.18      0.29         0.01
  WS02006111WS02006112        1.05      1.05      2.44      0.01         0.01
  WS02006112WS02006115        1.43      1.43      1.95      0.01         0.01
  WS02006113WS02006111        1.06      1.06      1.06      1.18         1.06
  WS02006115WS02006116        1.44      1.44      1.44      1.43         1.40
  WS02006116WS02004401        1.46      1.46      1.46      1.47         1.44
  WS02006228WS02006109        2.14      2.22      2.14      2.54         2.14
  WS02006229WS02006228        2.13      2.16      2.13      2.42         2.13
  WS02006230WS02006229        2.28      2.35      2.28      3.24         1.41
  WS02006231WS02006230        1.69      1.69      1.92      2.78         0.81
  WS02006232WS02006231        1.91      1.91      2.05      0.01         0.12
  WS02006234WS02006232        1.95      1.95      2.05      0.01         0.02
  WS02006235WS02006234        1.93      1.93      1.95      2.47         0.79
  WS02006238WS02006235        1.96      1.97      2.03      0.01         0.27
  WS02006239WS02006238        1.97      2.00      1.97      1.38         0.56
  WS02006240WS02006239        1.94      1.94      1.94      1.34         0.52
  WS02006242WS02006240        1.94      1.94      2.05      1.74         0.71
  WS02006243WS02006242        1.93      1.93      2.01      0.01         0.01
  WS02006245WS02006243        1.92      1.92      1.92      0.62         0.45
  WS02006247WS02006245        1.91      1.93      1.91      2.26         0.90
  WS02006248WS02006247        1.89      1.90      1.91      0.01         0.02
  WS02006249WS02006248        1.89      1.89      1.89      1.36         0.01
  WS02006251WS02006249        1.88      1.89      1.89      2.06         1.86
  WS02006252WS02006251        2.13      2.14      2.16      1.86         0.01
  WS02006253WS02006251        1.88      1.88      1.91      0.65         0.01
  WS02006256WS02006235        2.73      2.76      7.08      0.58         0.01
  WS02006280WS02006229        0.64      0.64      0.71      0.01         0.01
  WS02006284WS02006280        0.55      0.55      0.63      0.01         0.01
  WS02006287WS02006284        0.47      0.47      0.56      0.20         0.20
  YS02001580YS02001583        0.45      0.46      0.51      0.01         0.01
  YS02001583YS02001586        0.46      0.46      0.59      0.01         0.01
  YS02001586YS02001590        0.60      0.60      0.66      0.01         0.01
  YS02001590YS02001593        0.66      0.66      0.67      0.71         0.01
  YS02001593YS02001596        0.67      0.67      0.75      0.01         0.01
  YS02001596YS02001600        0.79      0.79      0.88      0.01         0.01
  YS02001600YS02001601        0.93      0.93      1.25      0.01         0.01
  YS02001601YS02001602        1.11      1.11      1.30      0.89         0.01
  YS02001602YS02001605        1.06      1.06      1.11      2.05         0.01
  YS02001605YS02001607        1.01      1.06      1.01      1.19         1.01
  YS02001607YS02001610        0.62      0.62      0.65      0.01         0.01
  YS02001610YS02001613        0.62      0.62      0.65      0.01         0.01
  YS02001613YS02001616        0.58      0.58      0.62      0.01         0.01
  YS02001616YS02001619        0.56      0.56      0.58      0.01         0.01
  YS02001619YS02001622        0.56      0.56      0.56      0.69         0.53
  YS02001622YS02001625        0.56      0.56      0.72      0.01         0.01
  YS02001625YS02001629        0.52      0.52      0.72      0.01         0.01
  YS02001629YS02163301        0.71      0.71      0.72      0.19         0.18
  YS02001633YS02163601        0.74      0.74      0.76      0.37         0.36
  YS02001641YS02001644        0.65      0.68      0.65      1.36         0.65
  YS02001644YS02001647        0.47      0.47      0.65      0.04         0.01
  YS02001647YS02001649        0.47      0.47      0.57      0.01         0.01
  YS02001649YS02001757        0.57      0.57      0.63      0.29         0.25
  YS02001652YS02001649        0.41      0.41      0.57      0.01         0.01
  YS02001655YS02001652        0.24      0.24      0.40      0.01         0.01
  YS02001658YS02001655        0.07      0.07      0.24      0.01         0.01
  YS02001661YS02001658        0.01      0.01      0.07      0.01         0.01
  YS02001664YS02001661        0.01      0.01      0.01      0.01         0.01
  YS02001745YS02001748        0.01      0.01      0.01      0.01         0.01
  YS02001748YS02001751        0.04      0.04      0.13      0.01         0.01
  YS02001751YS02001754        0.13      0.13      0.29      0.01         0.01
  YS02001754YS02001757        0.33      0.33      0.63      0.01         0.01
  YS02001757CaochengTiaoxuchi        0.52      0.63      1.49      0.30         0.18
  YS02001759YS02001757        0.53      0.53      0.63      0.01         0.02
  YS02001762YS02001759        0.50      0.50      0.53      0.01         0.02
  YS02001765YS02001762        0.45      0.45      0.50      0.01         0.01
  YS02001767YS02001765        0.42      0.42      0.45      0.01         0.04
  YS02001770YS02001767        0.42      0.42      0.42      0.42         0.32
  YS02001774YS02001770        0.40      0.40      0.48      0.01         0.01
  YS02001779YS02001774        0.29      0.29      0.48      0.01         0.01
  YS02001783YS02001784        0.42      0.44      0.42      0.55         0.42
  YS02001784YS02001785        0.33      0.42      0.33      0.75         0.33
  YS02001786YS02001788        0.01      0.33      0.01      0.63         0.01
  YS02001790YS02001791        0.01      0.01      0.01      0.41         0.01
  YS02001793JiankangQianchi        0.01      0.01      6.04      0.01         0.01
  YS02001882YS02001884        0.39      0.39      0.40      0.01         0.01
  YS02001884YS02001887        0.42      0.42      0.43      0.01         0.01
  YS02001887YS02001890        0.44      0.44      0.45      0.06         0.01
  YS02001890YS02001895        0.38      0.38      0.47      0.01         0.01
  YS02001895YS02001898        0.37      0.37      0.38      0.01         0.01
  YS02001898YS02001901        0.38      0.38      0.42      0.01         0.01
  YS02001901YS02001904        0.41      0.41      0.42      0.01         0.01
  YS02001904YS02001907        0.41      0.41      0.62      0.01         0.01
  YS02001907YS02006553        0.76      0.76      0.81      0.01         0.01
  YS02001910YS02001907        0.47      0.47      0.61      0.01         0.01
  YS02001915YS02001910        0.39      0.39      0.47      0.01         0.01
  YS02001918YS02001915        0.32      0.32      0.39      0.01         0.01
  YS02001920YS02001918        0.32      0.32      0.33      0.01         0.01
  YS02001923YS02001920        0.28      0.28      0.33      0.01         0.01
  YS02001926YS02001923        0.01      0.01      0.02      0.01         0.01
  YS02001929YS02001926        0.01      0.01      0.02      0.01         0.01
  YS02006553YS02006556        0.53      0.53      0.62      0.01         0.01
  YS02006556YS02006558        0.57      0.57      0.63      0.01         0.01
  YS02006558YS02006561        0.35      0.53      0.35      0.71         0.35
  YS02006561YS02001783        0.28      0.28      0.44      0.01         0.01
  YS02163301YS02001633        0.72      0.72      0.75      0.01         0.01
  YS02163601YS02164001        0.68      0.68      0.76      0.04         0.01
  YS02164001YS02001641        0.68      0.68      0.68      0.68         0.58
  YSB1154YSB6556              0.58      0.58      0.70      0.01         0.01
  YSB1171HS02004479           0.50      0.50      0.71      0.01         0.01
  YSB1174YSB1171              0.63      0.63      0.93      0.01         0.01
  YSB6556YSB1171              0.58      0.58      1.08      0.01         0.01
  
  
  ***************
  Pumping Summary
  ***************
  
  ---------------------------------------------------------------------------------------------------------
                                                  Min       Avg       Max     Total     Power    % Time Off
                        Percent   Number of      Flow      Flow      Flow    Volume     Usage    Pump Curve
  Pump                 Utilized   Start-Ups       LPS       LPS       LPS  10^6 ltr     Kw-hr    Low   High
  ---------------------------------------------------------------------------------------------------------
  CC-R1                   21.40          26      0.00    683.00    683.00     4.210     76.00    0.0   30.0
  CC-R2                   12.75          18      0.00    683.00    683.00     2.507     45.32    0.0   41.7
  CC-S1                   27.48          23      0.00    200.00    200.00     1.583     10.74    0.0    0.0
  CC-S2                   28.82          25      0.00    200.00    200.00     1.660     11.20    0.0    0.0
  JK-R1                    6.76          14      0.00   1000.00   1000.00     1.946     21.16    0.0    0.0
  JK-R2                    2.61          17      0.00   1000.00   1000.00     0.751      6.67    0.0    0.0
  JK-S                    10.09          33      0.00    300.00    300.00     0.872     14.51    0.0    0.0
  XR-1                    97.91           2      0.00     95.00     95.00     2.679      9.60    0.0    0.0
  XR-2                    93.94           2      0.00     95.00     95.00     2.570      8.76    0.0    0.0
  XR-3                     0.00           1      0.00     95.00     95.00     0.000      0.00    0.0    0.0
  XR-4                     0.00           1      0.00     95.00     95.00     0.000      0.00    0.0    0.0
  

  Analysis begun on:  Sat Feb 11 22:05:10 2023
  Analysis ended on:  Sat Feb 11 22:05:13 2023
  Total elapsed time: 00:00:03