
  EPA STORM WATER MANAGEMENT MODEL - VERSION 5.2 (Build 5.2.4)
  PYSWMM TOOLKIT API - VERSION v1.0 (2023-11-27)
  ------------------------------------------------------------

  WARNING 04: minimum elevation drop used for Conduit WS02004404WS02004405
  WARNING 03: negative offset ignored for Link YS02001904YS02001907
  
  ****************
  Analysis Options
  ****************
  Flow Units ............... LPS
  Process Models:
    Rainfall/Runoff ........ YES
    RDII ................... NO
    Snowmelt ............... NO
    Groundwater ............ NO
    Flow Routing ........... YES
    Ponding Allowed ........ NO
    Water Quality .......... NO
  Infiltration Method ...... HORTON
  Flow Routing Method ...... DYNWAVE
  Surcharge Method ......... EXTRAN
  Starting Date ............ 08/28/2015 08:00:00
  Ending Date .............. 08/28/2015 16:00:00
  Antecedent Dry Days ...... 8.0
  Report Time Step ......... 00:01:00
  Wet Time Step ............ 00:01:00
  Dry Time Step ............ 00:01:00
  Routing Time Step ........ 30.00 sec
  Variable Time Step ....... YES
  Maximum Trials ........... 8
  Number of Threads ........ 4
  Head Tolerance ........... 0.001500 m
  
  
  **************************        Volume         Depth
  Runoff Quantity Continuity     hectare-m            mm
  **************************     ---------       -------
  Initial LID Storage ......         0.049         1.488
  Total Precipitation ......         1.762        53.135
  Evaporation Loss .........         0.000         0.000
  Infiltration Loss ........         0.080         2.407
  Surface Runoff ...........         1.286        38.756
  Final Storage ............         0.447        13.464
  Continuity Error (%) .....        -0.010
  
  
  **************************        Volume        Volume
  Flow Routing Continuity        hectare-m      10^6 ltr
  **************************     ---------     ---------
  Dry Weather Inflow .......         0.602         6.020
  Wet Weather Inflow .......         1.285        12.852
  Groundwater Inflow .......         0.000         0.000
  RDII Inflow ..............         0.000         0.000
  External Inflow ..........         0.105         1.045
  External Outflow .........         1.556        15.563
  Flooding Loss ............         0.366         3.662
  Evaporation Loss .........         0.000         0.000
  Exfiltration Loss ........         0.000         0.000
  Initial Stored Volume ....         0.303         3.031
  Final Stored Volume ......         0.827         8.272
  Continuity Error (%) .....       -19.817
  
  
  *************************
  Highest Continuity Errors
  *************************
  Node YS02001774 (39.03%)
  Node WS02006256 (-6.00%)
  Node YS02001754 (4.70%)
  Node YS02001751 (4.29%)
  Node YS02001884 (3.51%)
  
  
  ***************************
  Time-Step Critical Elements
  ***************************
  Link WS02001212WS02001213 (27.11%)
  Link YS02006556YS02006558 (19.16%)
  Link WS02006238WS02006235 (18.87%)
  Link WS02006235WS02006234 (13.27%)
  Link WS02003066WSF200 (4.85%)
  
  
  ********************************
  Highest Flow Instability Indexes
  ********************************
  Link WS02006113WS02006111 (47)
  Link WS02006111WS02006112 (30)
  Link WS02006256WS02006235 (26)
  Link YS02006558YS02006561 (25)
  Link YS02001793JiankangQianchi (23)
  
  
  *********************************
  Most Frequent Nonconverging Nodes
  *********************************
  Node CC-1 (11.79%)
  Node CC-2 (11.79%)
  Node JK-1 (11.79%)
  Node JK-2 (11.79%)
  Node WSC (11.79%)
  
  
  *************************
  Routing Time Step Summary
  *************************
  Minimum Time Step           :     0.03 sec
  Average Time Step           :     3.25 sec
  Maximum Time Step           :     6.46 sec
  % of Time in Steady State   :     0.00
  Average Iterations per Step :     3.39
  % of Steps Not Converging   :    11.79
  Time Step Frequencies       :
     30.000 - 13.228 sec      :     0.00 %
     13.228 -  5.833 sec      :    26.22 %
      5.833 -  2.572 sec      :    28.96 %
      2.572 -  1.134 sec      :    28.99 %
      1.134 -  0.500 sec      :    15.83 %
  
  
  ***************************
  Subcatchment Runoff Summary
  ***************************
  
  ------------------------------------------------------------------------------------------------------------------------------
                            Total      Total      Total      Total     Imperv       Perv      Total       Total     Peak  Runoff
                           Precip      Runon       Evap      Infil     Runoff     Runoff     Runoff      Runoff   Runoff   Coeff
  Subcatchment                 mm         mm         mm         mm         mm         mm         mm    10^6 ltr      LPS
  ------------------------------------------------------------------------------------------------------------------------------
  sub60                     53.13       0.00       0.00       1.45      35.16       3.47      38.63        0.51   102.61   0.727
  sub61                     53.14       0.00       0.00       2.23      35.13       5.15      40.28        0.74   147.90   0.758
  sub62                     53.14       0.00       0.00       0.99      37.44       2.36      39.80        1.09   215.93   0.749
  sub63                     53.14       0.00       0.00       4.07      30.09       8.54      38.63        0.88   164.97   0.727
  sub64                     53.13       0.00       0.00       1.96      34.25       4.25      38.50        0.92   176.64   0.725
  sub65                     53.13       0.00       0.00       1.80      36.96       3.88      40.84        1.12   210.88   0.769
  sub66                     53.14       0.00       0.00       4.64      29.08       7.58      36.66        1.71   282.05   0.690
  sub67                     53.14       0.00       0.00       0.98      38.39       2.45      40.84        0.76   155.19   0.769
  sub68                     53.13       0.00       0.00       1.71      33.90       3.95      37.86        1.04   207.43   0.712
  sub69                     53.14       0.00       0.00       1.58      35.71       4.73      40.44        1.50   280.06   0.761
  sub70                     53.13       0.00       0.00       5.06      28.60       9.73      38.32        1.11   173.85   0.721
  sub71                     53.14       0.00       0.00       0.91      34.01       2.13      36.14        0.94   182.52   0.680
  sub72                     53.14       0.00       0.00       0.87      36.73       1.97      38.70        0.53    97.40   0.728
  

  ***********************
  LID Performance Summary
  ***********************

  --------------------------------------------------------------------------------------------------------------------
                                         Total      Evap     Infil   Surface    Drain    Initial     Final  Continuity
                                        Inflow      Loss      Loss   Outflow   Outflow   Storage   Storage       Error
  Subcatchment      LID Control             mm        mm        mm        mm        mm        mm        mm           %
  --------------------------------------------------------------------------------------------------------------------
  sub60             GreenRoof            53.13      0.00      0.00      0.00      0.00      7.05     60.19       -0.00
  sub61             GreenRoof            53.13      0.00      0.00      0.00      0.00      7.05     60.19       -0.00
  sub62             GreenRoof            53.13      0.00      0.00      0.00      0.00      7.05     60.19       -0.00
  sub63             GreenRoof            53.13      0.00      0.00      0.00      0.00      7.05     60.19       -0.00
  sub64             GreenRoof            53.13      0.00      0.00      0.00      0.00      7.05     60.19       -0.00
  sub65             GreenRoof            53.13      0.00      0.00      0.00      0.00      7.05     60.19       -0.00
  sub66             GreenRoof            53.13      0.00      0.00      0.00      0.00      7.05     60.19       -0.00
  sub67             GreenRoof            53.13      0.00      0.00      0.00      0.00      7.05     60.19       -0.00
  sub68             GreenRoof            53.13      0.00      0.00      0.00      0.00      7.05     60.19       -0.00
  sub69             GreenRoof            53.13      0.00      0.00      0.00      0.00      7.05     60.19       -0.00
  sub70             GreenRoof            53.13      0.00      0.00      0.00      0.00      7.05     60.19       -0.00
  sub71             GreenRoof            53.13      0.00      0.00      0.00      0.00      7.05     60.19       -0.00
  sub72             GreenRoof            53.13      0.00      0.00      0.00      0.00      7.05     60.19       -0.00
  
  ******************
  Node Depth Summary
  ******************
  
  ---------------------------------------------------------------------------------
                                 Average  Maximum  Maximum  Time of Max    Reported
                                   Depth    Depth      HGL   Occurrence   Max Depth
  Node                 Type       Meters   Meters   Meters  days hr:min      Meters
  ---------------------------------------------------------------------------------
  WS02001211           JUNCTION     0.76     0.78     5.62     0  02:10        0.78
  WS02001212           JUNCTION     0.46     0.49     5.55     0  02:09        0.49
  WS02001213           JUNCTION     0.69     0.73     5.49     0  02:09        0.73
  WS02003059           JUNCTION     0.73     0.78     5.47     0  02:08        0.78
  WS02003060           JUNCTION     0.39     0.47     5.41     0  02:08        0.47
  WS02003066           JUNCTION     0.18     0.27     5.82     0  02:07        0.27
  WS02003067           JUNCTION     0.47     0.65     5.97     0  02:07        0.65
  WS02003069           JUNCTION     0.44     0.54     5.12     0  02:08        0.54
  WS02003072           JUNCTION     0.51     0.60     4.97     0  02:09        0.60
  WS02003073           JUNCTION     0.30     0.37     4.43     0  02:10        0.37
  WS02004138           JUNCTION     0.19     0.20     7.45     0  00:00        0.19
  WS02004139           JUNCTION     0.71     0.73     5.64     0  02:11        0.73
  WS02004401           JUNCTION     0.55     0.75     6.75     0  02:01        0.75
  WS02004402           JUNCTION     0.58     0.78     6.74     0  02:01        0.78
  WS02004403           JUNCTION     0.61     0.80     6.73     0  02:02        0.80
  WS02004404           JUNCTION     0.68     0.88     6.73     0  02:17        0.88
  WS02004405           JUNCTION     0.68     0.88     6.73     0  02:01        0.88
  WS02004406           JUNCTION     0.69     0.88     6.71     0  02:01        0.88
  WS02004407           JUNCTION     0.16     0.26     6.57     0  01:58        0.26
  WS02004409           JUNCTION     0.35     0.58     6.35     0  02:06        0.58
  WS02004410           JUNCTION     0.38     0.59     6.31     0  02:06        0.59
  WS02004411           JUNCTION     0.40     0.61     6.29     0  02:06        0.61
  WS02004412           JUNCTION     0.42     0.62     6.26     0  02:07        0.62
  WS02004413           JUNCTION     0.58     0.79     6.26     0  02:07        0.79
  WS02006109           JUNCTION     0.61     0.83     7.45     0  01:56        0.83
  WS02006110           JUNCTION     0.62     0.82     7.41     0  01:56        0.82
  WS02006111           JUNCTION     0.16     0.25     6.96     0  01:49        0.25
  WS02006112           JUNCTION     0.70     0.93     6.82     0  02:04        0.93
  WS02006113           JUNCTION     0.25     0.39     7.29     0  03:31        0.39
  WS02006115           JUNCTION     0.44     0.65     6.78     0  02:16        0.65
  WS02006116           JUNCTION     0.52     0.73     6.77     0  02:16        0.73
  WS02006228           JUNCTION     0.60     0.84     7.49     0  01:33        0.84
  WS02006229           JUNCTION     0.57     0.83     7.53     0  01:32        0.82
  WS02006230           JUNCTION     0.56     0.86     7.60     0  01:57        0.86
  WS02006231           JUNCTION     0.35     0.60     7.72     0  02:52        0.60
  WS02006232           JUNCTION     0.48     0.75     7.79     0  02:55        0.75
  WS02006234           JUNCTION     0.40     0.71     7.87     0  02:52        0.71
  WS02006235           JUNCTION     0.44     0.77     7.93     0  02:54        0.76
  WS02006238           JUNCTION     0.47     0.81     7.96     0  02:28        0.81
  WS02006239           JUNCTION     0.45     0.81     8.02     0  02:43        0.80
  WS02006240           JUNCTION     0.43     0.79     8.08     0  02:46        0.79
  WS02006242           JUNCTION     0.50     0.90     8.17     0  02:51        0.90
  WS02006243           JUNCTION     0.44     0.84     8.26     0  02:37        0.84
  WS02006245           JUNCTION     0.44     0.86     8.34     0  02:45        0.85
  WS02006247           JUNCTION     0.46     0.91     8.41     0  02:37        0.91
  WS02006248           JUNCTION     0.43     0.86     8.44     0  02:46        0.85
  WS02006249           JUNCTION     0.46     0.89     8.49     0  02:43        0.89
  WS02006251           JUNCTION     0.46     0.91     8.58     0  02:46        0.91
  WS02006252           JUNCTION     0.31     1.50     9.74     0  00:00        0.59
  WS02006256           JUNCTION     0.67     2.35     9.28     0  00:00        2.35
  WSF200               JUNCTION     0.15     0.25     5.48     0  02:07        0.25
  YS02001580           JUNCTION     0.00     0.00     8.54     0  00:00        0.00
  YS02001583           JUNCTION     0.00     0.00     8.50     0  00:00        0.00
  YS02001586           JUNCTION     0.13     0.31     8.48     0  01:33        0.31
  YS02001590           JUNCTION     0.28     0.62     8.49     0  01:33        0.62
  YS02001593           JUNCTION     0.23     0.60     8.47     0  01:33        0.60
  YS02001596           JUNCTION     0.55     1.04     8.46     0  02:55        1.03
  YS02001600           JUNCTION     0.80     1.32     8.45     0  02:54        1.31
  YS02001601           JUNCTION     1.06     1.60     8.44     0  02:55        1.59
  YS02001602           JUNCTION     0.95     1.48     8.38     0  02:54        1.47
  YS02001605           JUNCTION     0.90     1.41     8.31     0  02:51        1.41
  YS02001607           JUNCTION     0.85     1.36     8.21     0  02:51        1.35
  YS02001610           JUNCTION     0.89     1.40     8.20     0  02:51        1.40
  YS02001613           JUNCTION     0.85     1.35     8.20     0  02:53        1.35
  YS02001616           JUNCTION     0.78     1.28     8.19     0  02:50        1.27
  YS02001619           JUNCTION     0.76     1.25     8.18     0  02:51        1.25
  YS02001622           JUNCTION     0.77     1.27     8.17     0  02:51        1.26
  YS02001625           JUNCTION     1.03     1.55     8.15     0  02:51        1.54
  YS02001629           JUNCTION     1.05     1.58     8.13     0  02:51        1.58
  YS02001633           JUNCTION     1.13     1.66     8.11     0  02:54        1.65
  YS02001641           JUNCTION     1.10     1.62     8.06     0  02:54        1.62
  YS02001644           JUNCTION     1.09     1.61     8.04     0  02:50        1.60
  YS02001647           JUNCTION     0.88     1.41     8.02     0  02:53        1.40
  YS02001649           JUNCTION     1.04     1.60     7.99     0  02:54        1.60
  YS02001652           JUNCTION     0.86     1.40     8.00     0  02:48        1.39
  YS02001655           JUNCTION     0.64     1.15     8.00     0  02:49        1.13
  YS02001658           JUNCTION     0.44     0.86     8.00     0  02:49        0.84
  YS02001661           JUNCTION     0.30     0.59     7.99     0  02:50        0.59
  YS02001664           JUNCTION     0.07     0.15     8.08     0  01:28        0.15
  YS02001745           JUNCTION     0.20     0.45     7.97     0  02:53        0.44
  YS02001748           JUNCTION     0.47     0.88     7.96     0  02:53        0.88
  YS02001751           JUNCTION     0.60     1.08     7.96     0  02:53        1.08
  YS02001754           JUNCTION     0.82     1.36     7.97     0  02:53        1.35
  YS02001757           JUNCTION     1.13     1.70     7.96     0  02:53        1.70
  YS02001759           JUNCTION     1.04     1.61     7.97     0  02:53        1.60
  YS02001762           JUNCTION     1.01     1.58     7.98     0  02:53        1.58
  YS02001765           JUNCTION     0.96     1.53     7.98     0  02:54        1.53
  YS02001767           JUNCTION     0.93     1.50     7.99     0  02:53        1.50
  YS02001770           JUNCTION     0.93     1.50     8.00     0  02:54        1.50
  YS02001774           JUNCTION     1.00     1.58     8.00     0  02:53        1.58
  YS02001779           JUNCTION     0.76     1.32     8.00     0  02:54        1.32
  YS02001783           JUNCTION     0.50     2.12     8.26     0  01:29        0.99
  YS02001784           JUNCTION     0.55     1.75     7.81     0  01:29        1.00
  YS02001786           JUNCTION     0.56     1.44     7.47     0  01:29        0.93
  YS02001788           JUNCTION     0.58     1.43     7.41     0  01:29        0.89
  YS02001790           JUNCTION     0.84     1.96     7.60     0  01:28        1.13
  YS02001791           JUNCTION     0.95     2.60     8.07     0  01:27        1.20
  YS02001793           JUNCTION     1.47     2.80     7.63     0  01:27        1.82
  YS02001882           JUNCTION     0.31     0.63     7.34     0  01:33        0.63
  YS02001884           JUNCTION     0.39     0.72     7.34     0  01:34        0.72
  YS02001887           JUNCTION     0.47     0.80     7.34     0  01:26        0.80
  YS02001890           JUNCTION     0.50     0.83     7.34     0  01:27        0.82
  YS02001895           JUNCTION     0.28     0.59     7.34     0  01:33        0.59
  YS02001898           JUNCTION     0.28     0.60     7.34     0  01:33        0.60
  YS02001901           JUNCTION     0.40     0.73     7.34     0  01:28        0.73
  YS02001904           JUNCTION     0.38     0.71     7.34     0  01:34        0.70
  YS02001907           JUNCTION     0.69     1.05     7.34     0  01:40        1.05
  YS02001910           JUNCTION     0.49     0.84     7.35     0  01:26        0.84
  YS02001915           JUNCTION     0.30     0.61     7.33     0  01:26        0.61
  YS02001918           JUNCTION     0.11     0.26     7.33     0  01:33        0.26
  YS02001920           JUNCTION     0.19     0.34     7.35     0  01:34        0.34
  YS02001923           JUNCTION     0.07     0.14     7.40     0  01:30        0.14
  YS02001926           JUNCTION     0.14     0.27     7.71     0  01:29        0.27
  YS02001929           JUNCTION     0.07     0.15     7.84     0  01:29        0.15
  YS02006553           JUNCTION     0.70     1.05     7.33     0  01:30        1.04
  YS02006556           JUNCTION     0.67     1.02     7.33     0  01:31        1.01
  YS02006558           JUNCTION     0.71     1.07     7.33     0  01:34        1.05
  YS02006561           JUNCTION     0.15     0.46     7.12     0  01:30        0.46
  YS02163301           JUNCTION     1.08     1.61     8.13     0  02:51        1.61
  YS02163601           JUNCTION     1.16     1.69     8.08     0  02:54        1.68
  YS02164001           JUNCTION     1.09     1.61     8.07     0  02:50        1.60
  CC-1                 OUTFALL      0.00     0.00     0.00     0  00:00        0.00
  CC-2                 OUTFALL      0.00     0.00     0.00     0  00:00        0.00
  JK-1                 OUTFALL      0.00     0.00     0.00     0  00:00        0.00
  JK-2                 OUTFALL      0.00     0.00     0.00     0  00:00        0.00
  WSC                  OUTFALL      0.30     0.37     1.04     0  02:10        0.37
  CC-storage           STORAGE      1.74     2.30     7.80     0  02:47        2.30
  JK-storage           STORAGE      4.91     5.80     6.60     0  01:28        5.80
  XR-storage           STORAGE      0.26     5.00     3.00     0  00:00        4.91
  
  
  *******************
  Node Inflow Summary
  *******************
  
  -------------------------------------------------------------------------------------------------
                                  Maximum  Maximum                  Lateral       Total        Flow
                                  Lateral    Total  Time of Max      Inflow      Inflow     Balance
                                   Inflow   Inflow   Occurrence      Volume      Volume       Error
  Node                 Type           LPS      LPS  days hr:min    10^6 ltr    10^6 ltr     Percent
  -------------------------------------------------------------------------------------------------
  WS02001211           JUNCTION      7.35   389.15     0  03:18       0.212        11.1       0.348
  WS02001212           JUNCTION      0.00   390.86     0  03:21           0        11.1       0.207
  WS02001213           JUNCTION      0.00   392.62     0  03:20           0        11.1       0.238
  WS02003059           JUNCTION      0.00   395.66     0  03:19           0          11       0.328
  WS02003060           JUNCTION     16.53   816.09     0  02:07       0.476          15       0.144
  WS02003066           JUNCTION      0.00   411.90     0  02:07           0        3.57       0.033
  WS02003067           JUNCTION      0.00   411.90     0  02:07           0        3.57       0.112
  WS02003069           JUNCTION      0.32   816.39     0  02:08     0.00922          15       0.151
  WS02003072           JUNCTION      0.00   816.38     0  02:09           0          15       0.198
  WS02003073           JUNCTION      1.82   818.20     0  02:09      0.0524          15       0.212
  WS02004138           JUNCTION      0.00   380.00     0  00:00           0        10.9       0.059
  WS02004139           JUNCTION      0.32   395.52     0  00:00     0.00924        10.9       0.407
  WS02004401           JUNCTION      0.00   412.25     0  02:00           0        3.67       0.270
  WS02004402           JUNCTION      0.00   412.15     0  02:16           0        3.66       0.275
  WS02004403           JUNCTION      0.00   412.14     0  02:01           0        3.65       0.270
  WS02004404           JUNCTION      0.16   412.24     0  01:58     0.00467        3.64       0.226
  WS02004405           JUNCTION      0.04   412.26     0  01:58      0.0011        3.64       0.336
  WS02004406           JUNCTION      0.00   412.25     0  02:17           0        3.62       0.562
  WS02004407           JUNCTION      0.00   412.09     0  02:02           0         3.6       0.025
  WS02004409           JUNCTION      0.00   412.04     0  01:58           0         3.6       0.061
  WS02004410           JUNCTION      0.00   412.04     0  01:59           0         3.6       0.108
  WS02004411           JUNCTION      0.00   411.98     0  02:02           0         3.6       0.142
  WS02004412           JUNCTION      0.00   411.97     0  02:06           0        3.59       0.195
  WS02004413           JUNCTION      0.00   411.95     0  02:03           0        3.58       0.349
  WS02006109           JUNCTION      1.23   411.74     0  01:57      0.0354        3.71       0.168
  WS02006110           JUNCTION      0.00   411.76     0  01:49           0         3.7       0.166
  WS02006111           JUNCTION      0.00   423.64     0  03:31           0         3.7       0.020
  WS02006112           JUNCTION      0.00   414.49     0  01:48           0         3.7       0.473
  WS02006113           JUNCTION      0.00   412.06     0  01:49           0         3.7       0.039
  WS02006115           JUNCTION      0.00   412.79     0  01:49           0        3.68       0.168
  WS02006116           JUNCTION      0.00   412.38     0  01:49           0        3.67       0.128
  WS02006228           JUNCTION      0.00   410.88     0  01:32           0        3.68       0.049
  WS02006229           JUNCTION      0.00   410.53     0  01:49           0        3.68       0.129
  WS02006230           JUNCTION     10.28   410.53     0  02:53       0.296        3.69       0.136
  WS02006231           JUNCTION      0.00   400.29     0  02:52           0        3.39      -0.044
  WS02006232           JUNCTION      0.00   400.29     0  02:52           0         3.4       0.238
  WS02006234           JUNCTION      0.00   401.02     0  02:38           0        3.39      -0.160
  WS02006235           JUNCTION      0.00   401.96     0  02:47           0        3.41       0.211
  WS02006238           JUNCTION      0.00   401.93     0  02:28           0        3.38      -0.321
  WS02006239           JUNCTION      0.00   401.22     0  02:37           0        3.37      -0.281
  WS02006240           JUNCTION      0.00   400.83     0  02:43           0        3.36      -0.044
  WS02006242           JUNCTION      0.00   400.70     0  02:46           0        3.36       0.011
  WS02006243           JUNCTION      0.00   401.19     0  02:40           0        3.35      -0.115
  WS02006245           JUNCTION      0.00   401.12     0  02:52           0        3.37       0.369
  WS02006247           JUNCTION      0.00   400.90     0  02:36           0        3.36      -0.021
  WS02006248           JUNCTION      0.00   404.27     0  03:12           0        3.36      -0.002
  WS02006249           JUNCTION      0.00   485.76     0  03:11           0        3.38       0.320
  WS02006251           JUNCTION      0.08   405.32     0  03:10     0.00222        3.38       0.009
  WS02006252           JUNCTION      0.00   400.00     0  00:00           0        3.37      -0.056
  WS02006256           JUNCTION      0.00   300.00     0  00:00           0      0.0242      -5.657
  WSF200               JUNCTION      0.00   411.90     0  02:07           0        3.57       0.016
  YS02001580           JUNCTION      0.00     0.00     0  00:00           0           0       0.000 ltr
  YS02001583           JUNCTION      0.00     0.00     0  00:00           0           0       0.000 ltr
  YS02001586           JUNCTION    173.85   173.85     0  01:45        1.11        1.11       0.020
  YS02001590           JUNCTION      0.00   178.87     0  01:47           0        1.11       0.031
  YS02001593           JUNCTION      0.00   179.81     0  01:49           0        1.11       0.026
  YS02001596           JUNCTION      0.00   181.37     0  01:49           0        1.11       0.334
  YS02001600           JUNCTION      0.00   181.42     0  01:50           0        1.11       0.739
  YS02001601           JUNCTION    280.06   433.94     0  01:32         1.5        2.59       0.338
  YS02001602           JUNCTION      0.00   433.98     0  01:32           0        2.58       0.361
  YS02001605           JUNCTION      0.00   434.12     0  01:32           0        2.58       0.546
  YS02001607           JUNCTION      0.00   433.96     0  01:32           0        2.56       0.846
  YS02001610           JUNCTION      0.00   433.29     0  01:33           0        2.55       0.933
  YS02001613           JUNCTION      0.00   433.07     0  01:33           0        2.53       0.971
  YS02001616           JUNCTION      0.00   433.18     0  01:35           0        2.52       0.873
  YS02001619           JUNCTION    282.05   708.00     0  01:44        1.71        4.21       0.517
  YS02001622           JUNCTION      0.00   707.97     0  01:35           0        4.17       0.709
  YS02001625           JUNCTION      0.00   708.95     0  01:35           0        4.14       1.124
  YS02001629           JUNCTION      0.00   709.00     0  01:35           0         4.1       0.555
  YS02001633           JUNCTION    211.08   908.89     0  01:34        1.13        5.18       0.628
  YS02001641           JUNCTION      0.00   909.20     0  01:35           0        5.11       0.418
  YS02001644           JUNCTION    176.68  1075.29     0  01:33       0.926        6.01       0.439
  YS02001647           JUNCTION      0.00  1075.45     0  01:34           0        5.97       0.478
  YS02001649           JUNCTION      0.00  1236.77     0  01:33           0        6.78       0.564
  YS02001652           JUNCTION      0.00   165.07     0  01:28           0       0.871       2.734
  YS02001655           JUNCTION      0.15   165.09     0  01:28     0.00443       0.894       2.729
  YS02001658           JUNCTION      0.00   209.78     0  02:34           0       0.906       1.793
  YS02001661           JUNCTION      0.00   164.96     0  01:28           0       0.896       0.848
  YS02001664           JUNCTION    164.97   164.97     0  01:28       0.877       0.877      -0.036
  YS02001745           JUNCTION    102.61   102.61     0  01:26       0.507        0.52       0.738
  YS02001748           JUNCTION      0.04   112.34     0  02:45      0.0013       0.536       3.023
  YS02001751           JUNCTION      0.01   102.64     0  01:26    0.000317       0.529       4.479
  YS02001754           JUNCTION      0.26   103.76     0  01:25     0.00749       0.515       4.934
  YS02001757           JUNCTION      0.00  1686.95     0  01:33           0        8.88       1.076
  YS02001759           JUNCTION    147.94   349.61     0  01:30        0.74        1.72       1.371
  YS02001762           JUNCTION      0.00   209.83     0  01:33           0           1       2.188
  YS02001765           JUNCTION      0.00   209.56     0  01:32           0        1.02       2.464
  YS02001767           JUNCTION      0.54   208.95     0  01:30      0.0154        1.06       3.581
  YS02001770           JUNCTION    216.08   216.08     0  01:27        1.09        1.12       2.889
  YS02001774           JUNCTION      0.00    34.26     0  01:08           0      0.0662      64.008
  YS02001779           JUNCTION      0.01    15.04     0  02:04    0.000144      0.0245     165.581
  YS02001783           JUNCTION      0.00   682.25     0  01:29           0        3.33       0.206
  YS02001784           JUNCTION      1.06   669.16     0  01:30      0.0305        3.35       0.312
  YS02001786           JUNCTION      0.06   670.14     0  01:30     0.00162        3.34       0.390
  YS02001788           JUNCTION      0.07   671.71     0  01:30     0.00204        3.33       0.401
  YS02001790           JUNCTION      0.15   673.83     0  01:30     0.00446        3.32       0.515
  YS02001791           JUNCTION      0.00   674.01     0  01:30           0        3.31       0.432
  YS02001793           JUNCTION      0.00   719.85     0  01:27           0        3.29       0.450
  YS02001882           JUNCTION      0.00    30.25     0  01:17           0      0.0387       1.827
  YS02001884           JUNCTION      0.00    52.77     0  01:15           0      0.0712       3.640
  YS02001887           JUNCTION    155.64   165.85     0  01:29       0.772       0.802       0.550
  YS02001890           JUNCTION      0.00   167.64     0  01:31           0       0.765       0.675
  YS02001895           JUNCTION      0.00   170.69     0  01:28           0        0.76       0.284
  YS02001898           JUNCTION      0.00   183.20     0  01:28           0       0.757      -0.004
  YS02001901           JUNCTION      0.00   198.31     0  01:27           0       0.761       0.445
  YS02001904           JUNCTION      0.00   179.69     0  01:27           0       0.769       0.376
  YS02001907           JUNCTION      0.00   464.44     0  01:27           0        2.33       0.789
  YS02001910           JUNCTION      0.00   328.98     0  01:30           0        1.56       0.464
  YS02001915           JUNCTION    182.54   294.19     0  01:27       0.945        1.56       0.101
  YS02001918           JUNCTION      0.00   104.36     0  01:34           0       0.616       0.046
  YS02001920           JUNCTION      2.87   100.26     0  01:30      0.0827       0.617       0.170
  YS02001923           JUNCTION      0.04    97.39     0  01:30     0.00109       0.534       0.001
  YS02001926           JUNCTION      0.05    97.43     0  01:29      0.0015       0.534       0.048
  YS02001929           JUNCTION     97.40    97.40     0  01:29       0.532       0.532      -0.009
  YS02006553           JUNCTION      0.00   450.88     0  01:28           0        2.32       0.518
  YS02006556           JUNCTION      0.00   453.87     0  01:28           0        2.34       0.353
  YS02006558           JUNCTION    208.31   665.40     0  01:28        1.07        3.37       0.121
  YS02006561           JUNCTION      0.00   681.58     0  01:32           0        3.33      -0.024
  YS02163301           JUNCTION      0.00   709.30     0  01:36           0        4.08       0.600
  YS02163601           JUNCTION      0.11   909.03     0  01:34     0.00317        5.14       0.592
  YS02164001           JUNCTION      0.00   909.05     0  01:34           0        5.12       0.396
  CC-1                 OUTFALL       0.00   683.00     0  00:00           0       0.208       0.000
  CC-2                 OUTFALL       0.00   683.00     0  00:00           0       0.208       0.000
  JK-1                 OUTFALL       0.00  1000.00     0  00:00           0      0.0791       0.000
  JK-2                 OUTFALL       0.00  1000.00     0  00:00           0      0.0791       0.000
  WSC                  OUTFALL       0.00   818.19     0  02:10           0          15       0.000
  CC-storage           STORAGE       0.00  1686.79     0  01:33           0          11       0.450
  JK-storage           STORAGE       0.00   845.24     0  01:26           0        3.43       0.467
  XR-storage           STORAGE     200.00   200.00     0  00:00        5.76        6.36     -41.886
  
  
  **********************
  Node Surcharge Summary
  **********************
  
  Surcharging occurs when water rises above the top of the highest conduit.
  ---------------------------------------------------------------------
                                               Max. Height   Min. Depth
                                   Hours       Above Crown    Below Rim
  Node                 Type      Surcharged         Meters       Meters
  ---------------------------------------------------------------------
  WS02006109           JUNCTION        1.69          0.015        1.805
  WS02006228           JUNCTION        1.67          0.014        2.186
  WS02006229           JUNCTION        1.71          0.033        2.417
  WS02006232           JUNCTION        1.82          0.050        1.430
  WS02006235           JUNCTION        1.71          0.056        1.234
  WS02006238           JUNCTION        1.76          0.093        1.337
  WS02006239           JUNCTION        1.72          0.067        1.223
  WS02006240           JUNCTION        1.72          0.079        1.311
  WS02006242           JUNCTION        1.88          0.174        0.646
  WS02006243           JUNCTION        1.75          0.134        0.636
  WS02006245           JUNCTION        1.75          0.146        0.704
  WS02006247           JUNCTION        1.79          0.197        0.563
  WS02006248           JUNCTION        1.74          0.136        0.244
  WS02006249           JUNCTION        1.78          0.194        0.196
  WS02006252           JUNCTION        2.34          1.100        0.000
  WS02006256           JUNCTION        3.42          2.050        0.000
  YS02001596           JUNCTION        1.68          0.306        0.764
  YS02001600           JUNCTION        2.04          0.637        0.553
  YS02001601           JUNCTION        6.80          0.977        0.463
  YS02001602           JUNCTION        6.77          0.879        0.391
  YS02001605           JUNCTION        6.75          0.812        0.368
  YS02001607           JUNCTION        0.95          0.358        0.322
  YS02001610           JUNCTION        1.67          0.401        0.279
  YS02001613           JUNCTION        0.97          0.354        0.346
  YS02001616           JUNCTION        0.84          0.276        0.334
  YS02001619           JUNCTION        0.82          0.255        0.355
  YS02001622           JUNCTION        0.84          0.267        0.353
  YS02001625           JUNCTION        6.55          0.548        0.232
  YS02001629           JUNCTION        0.55          0.204        0.266
  YS02001633           JUNCTION        6.57          0.640        0.420
  YS02001641           JUNCTION        6.00          0.621        0.479
  YS02001644           JUNCTION        5.98          0.611        0.309
  YS02001647           JUNCTION        5.78          0.405        0.495
  YS02001649           JUNCTION        5.94          0.602        0.448
  YS02001652           JUNCTION        5.73          0.370        0.760
  YS02001655           JUNCTION        0.45          0.151        1.049
  YS02001751           JUNCTION        0.32          0.082        1.118
  YS02001754           JUNCTION        5.60          0.307        0.843
  YS02001757           JUNCTION        6.02          0.704        0.506
  YS02001759           JUNCTION        5.93          0.606        0.604
  YS02001762           JUNCTION        5.90          0.579        0.571
  YS02001765           JUNCTION        5.85          0.534        0.566
  YS02001767           JUNCTION        5.81          0.502        0.528
  YS02001770           JUNCTION        5.79          0.474        0.446
  YS02001774           JUNCTION        5.88          0.579        0.471
  YS02001779           JUNCTION        5.54          0.318        0.362
  YS02001783           JUNCTION        0.16          1.319        0.281
  YS02001784           JUNCTION        0.35          0.947        0.543
  YS02001786           JUNCTION        0.20          0.637        0.793
  YS02001788           JUNCTION        0.11          0.629        0.851
  YS02001790           JUNCTION        6.53          1.157        0.000
  YS02001791           JUNCTION        6.53          1.802        0.118
  YS02001793           JUNCTION        6.55          1.800        0.800
  YS02001907           JUNCTION        0.36          0.042        0.908
  YS02006553           JUNCTION        0.46          0.046        1.144
  YS02163301           JUNCTION        6.55          0.608        0.422
  YS02163601           JUNCTION        6.59          0.686        0.394
  YS02164001           JUNCTION        6.00          0.611        0.489
  
  
  *********************
  Node Flooding Summary
  *********************
  
  Flooding refers to all water that overflows a node, whether it ponds or not.
  --------------------------------------------------------------------------
                                                             Total   Maximum
                                 Maximum   Time of Max       Flood    Ponded
                        Hours       Rate    Occurrence      Volume     Depth
  Node                 Flooded       LPS   days hr:min    10^6 ltr    Meters
  --------------------------------------------------------------------------
  WS02006252              0.01    245.63      0  00:00       0.000     0.000
  WS02006256              0.02    293.19      0  00:00       0.005     0.000
  YS02001790              0.01    140.15      0  01:28       0.000     0.000
  CC-storage              0.39    608.51      0  02:55       0.717     0.000
  JK-storage              6.52    674.20      0  01:30       2.939     0.000
  
  
  **********************
  Storage Volume Summary
  **********************
  
  ------------------------------------------------------------------------------------------------
                         Average    Avg   Evap  Exfil     Maximum    Max    Time of Max    Maximum
                          Volume   Pcnt   Pcnt   Pcnt      Volume   Pcnt     Occurrence    Outflow
  Storage Unit           1000 m³   Full   Loss   Loss     1000 m³   Full    days hr:min        LPS
  ------------------------------------------------------------------------------------------------
  CC-storage               4.850   75.7    0.0    0.0       6.410  100.0       0  02:47    1783.53
  JK-storage               0.247   84.7    0.0    0.0       0.291  100.0       0  01:28    2300.00
  XR-storage               0.031    2.2    0.0    0.0       0.600   41.7       0  00:00     380.00
  
  
  ***********************
  Outfall Loading Summary
  ***********************
  
  -----------------------------------------------------------
                         Flow       Avg       Max       Total
                         Freq      Flow      Flow      Volume
  Outfall Node           Pcnt       LPS       LPS    10^6 ltr
  -----------------------------------------------------------
  CC-1                   1.15    683.00    683.00       0.208
  CC-2                   1.15    683.00    683.00       0.208
  JK-1                   1.07    347.46   1000.00       0.079
  JK-2                   1.07    347.46   1000.00       0.079
  WSC                   99.93    594.53    818.19      14.988
  -----------------------------------------------------------
  System                20.87   2655.45   3366.35      15.563
  
  
  ********************
  Link Flow Summary
  ********************
  
  -----------------------------------------------------------------------------
                                 Maximum  Time of Max   Maximum    Max/    Max/
                                  |Flow|   Occurrence   |Veloc|    Full    Full
  Link                 Type          LPS  days hr:min     m/sec    Flow   Depth
  -----------------------------------------------------------------------------
  1                    CONDUIT    818.19     0  02:10      3.15    0.28    0.37
  WS02001211WS02001212 CONDUIT    390.86     0  03:21      0.78    0.30    0.64
  WS02001212WS02001213 CONDUIT    392.62     0  03:20      1.32    0.61    0.45
  WS02001213WS02003059 CONDUIT    395.66     0  03:19      0.85    0.65    0.75
  WS02003059WS02003060 CONDUIT    399.95     0  03:20      0.95    0.26    0.63
  WS02003060WS02003069 CONDUIT    816.07     0  02:08      1.80    0.32    0.42
  WS02003066WSF200     CONDUIT    411.90     0  02:07      2.69    0.07    0.19
  WS02003067WS02003066 CONDUIT    411.90     0  02:07      1.04    0.13    0.38
  WS02003069WS02003072 CONDUIT    816.38     0  02:09      1.55    0.39    0.47
  WS02003072WS02003073 CONDUIT    816.38     0  02:09      1.64    1.76    0.45
  WS02004138WS02004139 CONDUIT    395.20     0  00:00      3.65    0.08    0.43
  WS02004139WS02001211 CONDUIT    381.80     0  03:18      0.91    0.48    0.59
  WS02004401WS02004402 CONDUIT    412.15     0  02:16      0.99    0.49    0.77
  WS02004402WS02004403 CONDUIT    412.14     0  02:01      0.99    0.59    0.79
  WS02004403WS02004404 CONDUIT    412.08     0  01:58      0.93    0.30    0.84
  WS02004404WS02004405 CONDUIT    412.23     0  01:58      1.10    4.04    0.88
  WS02004405WS02004406 CONDUIT    412.25     0  02:17      1.03    0.81    0.88
  WS02004406WS02004407 CONDUIT    412.09     0  02:02      0.89    0.18    0.57
  WS02004407WS02004409 CONDUIT    412.04     0  01:58      1.35    0.15    0.42
  WS02004409WS02004410 CONDUIT    412.04     0  01:59      0.88    0.53    0.58
  WS02004410WS02004411 CONDUIT    411.98     0  02:02      0.84    0.56    0.60
  WS02004411WS02004412 CONDUIT    411.97     0  02:06      0.81    0.59    0.61
  WS02004412WS02004413 CONDUIT    411.95     0  02:03      0.70    0.28    0.70
  WS02004413WS02003067 CONDUIT    411.90     0  02:07      0.96    0.18    0.54
  WS02006109WS02006110 CONDUIT    411.76     0  01:49      0.84    0.79    0.94
  WS02006110WS02006113 CONDUIT    412.06     0  01:49      1.03    0.37    0.75
  WS02006111WS02006112 CONDUIT    414.49     0  01:48      1.83    0.20    0.65
  WS02006112WS02006115 CONDUIT    412.79     0  01:49      0.70    0.24    0.78
  WS02006113WS02006111 CONDUIT    423.64     0  03:31      2.25    0.51    0.40
  WS02006115WS02006116 CONDUIT    412.38     0  01:49      0.98    0.53    0.66
  WS02006116WS02004401 CONDUIT    412.25     0  02:00      1.00    0.57    0.74
  WS02006228WS02006109 CONDUIT    410.51     0  01:57      1.06    1.79    1.00
  WS02006229WS02006228 CONDUIT    410.88     0  01:32      1.13    1.36    1.00
  WS02006230WS02006229 CONDUIT    410.53     0  01:49      1.22    9.14    1.00
  WS02006231WS02006230 CONDUIT    400.25     0  02:53      1.37    6.07    0.77
  WS02006232WS02006231 CONDUIT    400.29     0  02:52      1.08    0.84    0.92
  WS02006234WS02006232 CONDUIT    400.29     0  02:52      1.40    0.81    1.00
  WS02006235WS02006234 CONDUIT    401.02     0  02:38      1.29    4.23    0.99
  WS02006238WS02006235 CONDUIT    401.96     0  02:47      1.48    0.90    1.00
  WS02006239WS02006238 CONDUIT    401.93     0  02:28      1.21    1.29    1.00
  WS02006240WS02006239 CONDUIT    401.22     0  02:37      1.30    1.26    1.00
  WS02006242WS02006240 CONDUIT    400.83     0  02:43      1.17    1.59    1.00
  WS02006243WS02006242 CONDUIT    400.70     0  02:46      1.41    0.86    1.00
  WS02006245WS02006243 CONDUIT    401.19     0  02:40      1.45    1.19    1.00
  WS02006247WS02006245 CONDUIT    401.12     0  02:52      1.43    3.18    1.00
  WS02006248WS02006247 CONDUIT    400.90     0  02:36      1.44    0.87    1.00
  WS02006249WS02006248 CONDUIT    404.27     0  03:12      1.39    2.21    1.00
  WS02006251WS02006249 CONDUIT    485.76     0  03:11      1.99    1.40    1.00
  WS02006252WS02006251 CONDUIT    405.24     0  03:10     24.55    1.49    1.00
  WS02006256WS02006235 CONDUIT    288.91     0  00:00      4.23    3.06    1.00
  WSF200WS02003060     CONDUIT    411.91     0  02:07      1.43    0.09    0.30
  YS02001580YS02001583 CONDUIT      0.00     0  00:00      0.00    0.00    0.00
  YS02001583YS02001586 CONDUIT      0.00     0  00:00      0.00    0.00    0.24
  YS02001586YS02001590 CONDUIT    178.87     0  01:47      1.23    0.31    0.73
  YS02001590YS02001593 CONDUIT    179.81     0  01:49      0.99    1.13    0.99
  YS02001593YS02001596 CONDUIT    181.37     0  01:49      1.63    0.29    1.00
  YS02001596YS02001600 CONDUIT    181.42     0  01:50      1.08    0.35    1.00
  YS02001600YS02001601 CONDUIT    181.43     0  01:50      0.64    0.31    1.00
  YS02001601YS02001602 CONDUIT    433.98     0  01:32      1.53    1.57    1.00
  YS02001602YS02001605 CONDUIT    434.12     0  01:32      1.54    9.19    1.00
  YS02001605YS02001607 CONDUIT    433.96     0  01:32      1.53    2.38    1.00
  YS02001607YS02001610 CONDUIT    433.29     0  01:33      0.67    0.41    1.00
  YS02001610YS02001613 CONDUIT    433.07     0  01:33      0.59    0.50    1.00
  YS02001613YS02001616 CONDUIT    433.18     0  01:35      0.64    0.37    1.00
  YS02001616YS02001619 CONDUIT    434.06     0  01:35      0.69    0.75    1.00
  YS02001619YS02001622 CONDUIT    707.97     0  01:35      1.44    1.04    1.00
  YS02001622YS02001625 CONDUIT    708.95     0  01:35      0.96    0.38    1.00
  YS02001625YS02001629 CONDUIT    709.00     0  01:35      1.01    0.34    1.00
  YS02001629YS02163301 CONDUIT    709.30     0  01:36      0.90    0.87    1.00
  YS02001633YS02163601 CONDUIT    908.92     0  01:34      1.16    0.95    1.00
  YS02001641YS02001644 CONDUIT    909.38     0  01:35      1.18    2.94    1.00
  YS02001644YS02001647 CONDUIT   1075.45     0  01:34      1.68    0.63    1.00
  YS02001647YS02001649 CONDUIT   1076.05     0  01:34      2.14    0.57    1.00
  YS02001649YS02001757 CONDUIT   1237.82     0  01:33      2.33    0.75    1.00
  YS02001652YS02001649 CONDUIT    165.42     0  01:28      1.11    0.08    1.00
  YS02001655YS02001652 CONDUIT    165.07     0  01:28      1.48    0.08    1.00
  YS02001658YS02001655 CONDUIT    164.94     0  01:28      1.65    0.07    0.93
  YS02001661YS02001658 CONDUIT    209.78     0  02:34      1.78    0.08    0.67
  YS02001664YS02001661 CONDUIT    164.96     0  01:28      1.49    0.05    0.35
  YS02001745YS02001748 CONDUIT    112.29     0  02:45      1.61    0.04    0.61
  YS02001748YS02001751 CONDUIT    102.63     0  01:26      1.35    0.05    0.94
  YS02001751YS02001754 CONDUIT    103.50     0  01:25      1.35    0.05    1.00
  YS02001754YS02001757 CONDUIT    106.51     0  01:27      0.81    0.04    1.00
  YS02001757CaochengTiaoxuchi CONDUIT   1686.79     0  01:33      2.56    0.73    1.00
  YS02001759YS02001757 CONDUIT    349.74     0  01:31      1.16    0.25    1.00
  YS02001762YS02001759 CONDUIT    213.12     0  01:33      0.70    0.25    1.00
  YS02001765YS02001762 CONDUIT    209.83     0  01:33      0.81    0.20    1.00
  YS02001767YS02001765 CONDUIT    209.56     0  01:32      0.86    0.26    1.00
  YS02001770YS02001767 CONDUIT    208.41     0  01:30      0.77    0.83    1.00
  YS02001774YS02001770 CONDUIT     34.26     0  01:08      0.54    0.02    1.00
  YS02001779YS02001774 CONDUIT     15.03     0  02:04      0.16    0.01    1.00
  YS02001783YS02001784 CONDUIT    668.10     0  01:30      1.56    0.92    1.00
  YS02001784YS02001785 CONDUIT    670.09     0  01:30      1.69    1.56    1.00
  YS02001786YS02001788 CONDUIT    671.64     0  01:30      2.13    1.29    1.00
  YS02001788YS02001790 CONDUIT    673.67     0  01:30      2.22    0.50    1.00
  YS02001790YS02001791 CONDUIT    674.01     0  01:30      2.59    0.73    1.00
  YS02001791YS02001793 CONDUIT    719.85     0  01:27      5.22    0.31    1.00
  YS02001793JiankangQianchi CONDUIT    845.24     0  01:26      2.45    0.07    1.00
  YS02001882YS02001884 CONDUIT     30.25     0  01:17      0.29    0.03    0.64
  YS02001884YS02001887 CONDUIT     52.77     0  01:15      0.23    0.07    0.73
  YS02001887YS02001890 CONDUIT    167.64     0  01:31      0.27    0.29    0.79
  YS02001890YS02001895 CONDUIT    170.69     0  01:28      0.29    0.08    0.71
  YS02001895YS02001898 CONDUIT    183.20     0  01:28      0.54    0.32    0.57
  YS02001898YS02001901 CONDUIT    198.31     0  01:27      0.47    0.13    0.66
  YS02001901YS02001904 CONDUIT    179.69     0  01:27      0.49    0.28    0.71
  YS02001904YS02001907 CONDUIT    193.55     0  01:27      0.27    0.07    0.85
  YS02001907YS02006553 CONDUIT    450.88     0  01:28      0.50    0.53    1.00
  YS02001910YS02001907 CONDUIT    322.55     0  01:27      0.49    0.18    0.92
  YS02001915YS02001910 CONDUIT    328.98     0  01:30      0.93    0.16    0.72
  YS02001918YS02001915 CONDUIT    112.19     0  01:34      0.44    0.06    0.43
  YS02001920YS02001918 CONDUIT    104.36     0  01:34      0.65    0.10    0.30
  YS02001923YS02001920 CONDUIT     97.39     0  01:30      0.69    0.04    0.24
  YS02001926YS02001923 CONDUIT     97.35     0  01:30      0.76    0.14    0.22
  YS02001929YS02001926 CONDUIT     97.38     0  01:29      0.83    0.05    0.21
  YS02006553YS02006556 CONDUIT    453.87     0  01:28      0.58    0.39    0.99
  YS02006556YS02006558 CONDUIT    464.86     0  01:35      0.59    0.37    1.00
  YS02006558YS02006561 CONDUIT    681.58     0  01:32      3.18    1.51    0.83
  YS02006561YS02001783 CONDUIT    682.25     0  01:29      2.10    0.35    0.79
  YS02163301YS02001633 CONDUIT    709.35     0  01:36      0.90    0.67    1.00
  YS02163601YS02164001 CONDUIT    909.05     0  01:34      1.16    0.81    1.00
  YS02164001YS02001641 CONDUIT    909.20     0  01:35      1.16    1.24    1.00
  CC-R1                PUMP       683.00     0  00:00              1.00
  CC-R2                PUMP       683.00     0  00:00              1.00
  CC-S1                PUMP       200.00     0  00:00              1.00
  CC-S2                PUMP       200.00     0  00:00              1.00
  JK-R1                PUMP      1000.00     0  00:00              1.00
  JK-R2                PUMP      1000.00     0  00:00              1.00
  JK-S                 PUMP       300.00     0  00:00              1.00
  XR-1                 PUMP        95.00     0  00:00              1.00
  XR-2                 PUMP        95.00     0  00:00              1.00
  XR-3                 PUMP        95.00     0  00:00              1.00
  XR-4                 PUMP        95.00     0  00:00              1.00
  
  
  ***************************
  Flow Classification Summary
  ***************************
  
  -------------------------------------------------------------------------------------
                      Adjusted    ---------- Fraction of Time in Flow Class ---------- 
                       /Actual         Up    Down  Sub   Sup   Up    Down  Norm  Inlet 
  Conduit               Length    Dry  Dry   Dry   Crit  Crit  Crit  Crit  Ltd   Ctrl  
  -------------------------------------------------------------------------------------
  1                       1.00   0.00  0.00  0.00  0.00  1.00  0.00  0.00  0.18  0.00
  WS02001211WS02001212    1.00   0.00  0.00  0.00  1.00  0.00  0.00  0.00  0.00  0.00
  WS02001212WS02001213    1.00   0.00  0.00  0.00  0.41  0.00  0.59  0.00  0.00  0.00
  WS02001213WS02003059    1.00   0.00  0.00  0.00  0.99  0.00  0.00  0.00  0.00  0.00
  WS02003059WS02003060    1.00   0.00  0.00  0.00  1.00  0.00  0.00  0.00  0.00  0.00
  WS02003060WS02003069    1.00   0.00  0.00  0.00  0.99  0.01  0.00  0.00  0.00  0.00
  WS02003066WSF200        1.00   0.02  0.10  0.00  0.00  0.88  0.00  0.00  0.87  0.00
  WS02003067WS02003066    1.00   0.10  0.02  0.00  0.89  0.00  0.00  0.00  0.00  0.00
  WS02003069WS02003072    1.00   0.00  0.00  0.00  0.99  0.01  0.00  0.00  0.00  0.00
  WS02003072WS02003073    1.00   0.00  0.00  0.00  0.00  0.00  0.00  1.00  0.00  0.00
  WS02004138WS02004139    1.00   0.00  0.00  0.00  0.99  0.01  0.00  0.00  1.00  0.00
  WS02004139WS02001211    1.00   0.00  0.00  0.00  1.00  0.00  0.00  0.00  0.00  0.00
  WS02004401WS02004402    1.00   0.02  0.00  0.00  0.98  0.00  0.00  0.00  0.00  0.00
  WS02004402WS02004403    1.00   0.02  0.00  0.00  0.98  0.00  0.00  0.00  0.00  0.00
  WS02004403WS02004404    1.00   0.00  0.03  0.00  0.97  0.00  0.00  0.00  0.00  0.00
  WS02004404WS02004405    1.00   0.00  0.00  0.00  1.00  0.00  0.00  0.00  0.00  0.00
  WS02004405WS02004406    1.00   0.00  0.00  0.00  1.00  0.00  0.00  0.00  0.00  0.00
  WS02004406WS02004407    1.00   0.00  0.05  0.00  0.95  0.00  0.00  0.00  0.00  0.00
  WS02004407WS02004409    1.00   0.05  0.00  0.00  0.94  0.01  0.00  0.00  0.94  0.00
  WS02004409WS02004410    1.00   0.05  0.00  0.00  0.95  0.00  0.00  0.00  0.02  0.00
  WS02004410WS02004411    1.00   0.05  0.00  0.00  0.95  0.00  0.00  0.00  0.00  0.00
  WS02004411WS02004412    1.00   0.05  0.00  0.00  0.95  0.00  0.00  0.00  0.00  0.00
  WS02004412WS02004413    1.00   0.05  0.00  0.00  0.94  0.00  0.00  0.00  0.01  0.00
  WS02004413WS02003067    1.00   0.06  0.04  0.00  0.00  0.00  0.90  0.00  0.00  0.00
  WS02006109WS02006110    1.00   0.00  0.01  0.00  0.98  0.00  0.01  0.00  0.00  0.00
  WS02006110WS02006113    1.00   0.01  0.01  0.00  0.98  0.00  0.00  0.00  0.00  0.00
  WS02006111WS02006112    1.00   0.02  0.00  0.00  0.98  0.00  0.00  0.00  0.98  0.00
  WS02006112WS02006115    1.00   0.02  0.00  0.00  0.97  0.00  0.00  0.00  0.00  0.00
  WS02006113WS02006111    1.00   0.02  0.00  0.00  0.00  0.98  0.00  0.00  0.12  0.00
  WS02006115WS02006116    1.00   0.02  0.00  0.00  0.97  0.00  0.00  0.01  0.00  0.00
  WS02006116WS02004401    1.00   0.02  0.00  0.00  0.98  0.00  0.00  0.00  0.00  0.00
  WS02006228WS02006109    1.00   0.00  0.00  0.00  1.00  0.00  0.00  0.00  0.00  0.00
  WS02006229WS02006228    1.00   0.00  0.00  0.00  0.99  0.00  0.00  0.01  0.00  0.00
  WS02006230WS02006229    1.00   0.00  0.00  0.00  0.99  0.00  0.00  0.01  0.00  0.00
  WS02006231WS02006230    1.00   0.00  0.00  0.00  0.25  0.00  0.75  0.00  0.00  0.00
  WS02006232WS02006231    1.00   0.00  0.00  0.00  0.99  0.00  0.01  0.00  0.00  0.00
  WS02006234WS02006232    1.00   0.00  0.00  0.00  1.00  0.00  0.00  0.00  0.48  0.00
  WS02006235WS02006234    1.00   0.00  0.00  0.00  0.48  0.00  0.52  0.00  0.00  0.00
  WS02006238WS02006235    1.00   0.00  0.00  0.00  1.00  0.00  0.00  0.00  0.00  0.00
  WS02006239WS02006238    1.00   0.00  0.00  0.00  1.00  0.00  0.00  0.00  0.57  0.00
  WS02006240WS02006239    1.00   0.00  0.00  0.00  0.39  0.00  0.00  0.60  0.01  0.00
  WS02006242WS02006240    1.00   0.00  0.00  0.00  0.99  0.00  0.01  0.00  0.00  0.00
  WS02006243WS02006242    1.00   0.00  0.00  0.00  0.99  0.00  0.00  0.01  0.66  0.00
  WS02006245WS02006243    1.00   0.00  0.00  0.00  0.45  0.00  0.00  0.55  0.00  0.00
  WS02006247WS02006245    1.00   0.00  0.00  0.00  0.99  0.00  0.00  0.01  0.00  0.00
  WS02006248WS02006247    1.00   0.00  0.00  0.00  0.99  0.00  0.00  0.01  0.12  0.00
  WS02006249WS02006248    1.00   0.00  0.00  0.00  0.34  0.00  0.66  0.00  0.00  0.00
  WS02006251WS02006249    1.00   0.00  0.00  0.00  1.00  0.00  0.00  0.00  0.67  0.00
  WS02006252WS02006251    1.00   0.01  0.70  0.00  0.00  0.00  0.29  0.00  0.01  0.00
  WS02006256WS02006235    1.00   0.00  0.00  0.00  1.00  0.00  0.00  0.00  0.00  0.00
  WSF200WS02003060        1.00   0.00  0.02  0.00  0.98  0.00  0.00  0.00  0.67  0.00
  YS02001580YS02001583    1.00   1.00  0.00  0.00  0.00  0.00  0.00  0.00  0.00  0.00
  YS02001583YS02001586    1.00   0.47  0.53  0.00  0.00  0.00  0.00  0.00  0.00  0.00
  YS02001586YS02001590    1.00   0.13  0.00  0.00  0.42  0.03  0.00  0.43  0.35  0.00
  YS02001590YS02001593    1.00   0.13  0.00  0.00  0.21  0.00  0.66  0.00  0.00  0.00
  YS02001593YS02001596    1.00   0.13  0.00  0.00  0.84  0.00  0.00  0.03  0.62  0.00
  YS02001596YS02001600    1.00   0.13  0.00  0.00  0.85  0.00  0.00  0.01  0.01  0.00
  YS02001600YS02001601    1.00   0.13  0.01  0.00  0.87  0.00  0.00  0.00  0.01  0.00
  YS02001601YS02001602    1.00   0.13  0.00  0.00  0.87  0.00  0.00  0.00  0.00  0.00
  YS02001602YS02001605    1.00   0.13  0.00  0.00  0.87  0.00  0.00  0.00  0.00  0.00
  YS02001605YS02001607    1.00   0.13  0.00  0.00  0.87  0.00  0.00  0.00  0.00  0.00
  YS02001607YS02001610    1.00   0.13  0.00  0.00  0.87  0.00  0.00  0.00  0.00  0.00
  YS02001610YS02001613    1.00   0.13  0.00  0.00  0.87  0.00  0.00  0.00  0.00  0.00
  YS02001613YS02001616    1.00   0.13  0.00  0.00  0.87  0.00  0.00  0.00  0.00  0.00
  YS02001616YS02001619    1.00   0.13  0.00  0.00  0.87  0.00  0.00  0.00  0.00  0.00
  YS02001619YS02001622    1.00   0.13  0.00  0.00  0.87  0.00  0.00  0.00  0.00  0.00
  YS02001622YS02001625    1.00   0.13  0.00  0.00  0.87  0.01  0.00  0.00  0.01  0.00
  YS02001625YS02001629    1.00   0.13  0.02  0.00  0.84  0.00  0.01  0.00  0.00  0.00
  YS02001629YS02163301    1.00   0.13  0.00  0.00  0.86  0.00  0.00  0.00  0.00  0.00
  YS02001633YS02163601    1.00   0.00  0.01  0.00  0.99  0.00  0.00  0.00  0.13  0.00
  YS02001641YS02001644    1.00   0.00  0.01  0.00  0.99  0.00  0.00  0.00  0.00  0.00
  YS02001644YS02001647    1.00   0.00  0.14  0.00  0.86  0.00  0.00  0.00  0.00  0.00
  YS02001647YS02001649    1.00   0.00  0.14  0.00  0.86  0.00  0.00  0.00  0.01  0.00
  YS02001649YS02001757    1.00   0.00  0.00  0.00  1.00  0.00  0.00  0.00  0.14  0.00
  YS02001652YS02001649    1.00   0.00  0.00  0.00  0.99  0.01  0.00  0.00  0.13  0.00
  YS02001655YS02001652    1.00   0.00  0.00  0.00  0.84  0.00  0.00  0.16  0.05  0.00
  YS02001658YS02001655    1.00   0.00  0.13  0.00  0.78  0.09  0.00  0.00  0.07  0.00
  YS02001661YS02001658    1.00   0.13  0.00  0.00  0.74  0.13  0.00  0.00  0.12  0.00
  YS02001664YS02001661    1.00   0.13  0.00  0.00  0.72  0.15  0.00  0.00  0.87  0.00
  YS02001745YS02001748    1.00   0.00  0.00  0.00  0.74  0.01  0.00  0.25  0.05  0.00
  YS02001748YS02001751    1.00   0.00  0.00  0.00  0.90  0.10  0.00  0.00  0.18  0.00
  YS02001751YS02001754    1.00   0.00  0.00  0.00  0.82  0.01  0.00  0.17  0.04  0.00
  YS02001754YS02001757    1.00   0.00  0.00  0.00  0.99  0.01  0.00  0.00  0.16  0.00
  YS02001757CaochengTiaoxuchi    1.00   0.00  0.00  0.00  0.98  0.02  0.00  0.00  0.15  0.00
  YS02001759YS02001757    1.00   0.00  0.00  0.00  0.99  0.01  0.00  0.00  0.06  0.00
  YS02001762YS02001759    1.00   0.00  0.00  0.00  1.00  0.00  0.00  0.00  0.01  0.00
  YS02001765YS02001762    1.00   0.00  0.00  0.00  1.00  0.00  0.00  0.00  0.12  0.00
  YS02001767YS02001765    1.00   0.00  0.00  0.00  1.00  0.00  0.00  0.00  0.00  0.00
  YS02001770YS02001767    1.00   0.00  0.00  0.00  1.00  0.00  0.00  0.00  0.00  0.00
  YS02001774YS02001770    1.00   0.00  0.13  0.00  0.87  0.00  0.00  0.00  0.01  0.00
  YS02001779YS02001774    1.00   0.00  0.00  0.00  1.00  0.00  0.00  0.00  0.14  0.00
  YS02001783YS02001784    1.00   0.00  0.14  0.00  0.86  0.00  0.00  0.00  0.00  0.00
  YS02001784YS02001785    1.00   0.00  0.00  0.00  1.00  0.00  0.00  0.00  0.13  0.00
  YS02001786YS02001788    1.00   0.00  0.00  0.00  0.97  0.03  0.00  0.00  0.00  0.00
  YS02001788YS02001790    1.00   0.00  0.00  0.00  0.97  0.03  0.00  0.00  0.15  0.00
  YS02001790YS02001791    1.00   0.00  0.00  0.00  0.83  0.17  0.00  0.00  0.02  0.00
  YS02001791YS02001793    1.00   0.00  0.00  0.00  0.82  0.18  0.00  0.00  0.00  0.00
  YS02001793JiankangQianchi    1.00   0.00  0.00  0.00  0.93  0.07  0.00  0.00  0.15  0.00
  YS02001882YS02001884    1.00   0.13  0.00  0.00  0.86  0.00  0.00  0.00  0.00  0.00
  YS02001884YS02001887    1.00   0.06  0.05  0.00  0.89  0.00  0.00  0.00  0.00  0.00
  YS02001887YS02001890    1.00   0.00  0.00  0.00  0.97  0.00  0.03  0.00  0.00  0.00
  YS02001890YS02001895    1.00   0.00  0.13  0.00  0.86  0.00  0.00  0.00  0.00  0.00
  YS02001895YS02001898    1.00   0.14  0.00  0.00  0.85  0.00  0.01  0.00  0.00  0.00
  YS02001898YS02001901    1.00   0.14  0.00  0.00  0.86  0.00  0.00  0.00  0.00  0.00
  YS02001901YS02001904    1.00   0.14  0.00  0.00  0.86  0.00  0.00  0.00  0.00  0.00
  YS02001904YS02001907    1.00   0.00  0.14  0.00  0.86  0.00  0.00  0.00  0.00  0.00
  YS02001907YS02006553    1.00   0.00  0.02  0.00  0.98  0.00  0.00  0.00  0.00  0.00
  YS02001910YS02001907    1.00   0.00  0.00  0.00  0.97  0.00  0.00  0.03  0.11  0.00
  YS02001915YS02001910    1.00   0.00  0.00  0.00  0.97  0.03  0.00  0.00  0.11  0.00
  YS02001918YS02001915    1.00   0.00  0.01  0.00  0.98  0.02  0.00  0.00  0.74  0.00
  YS02001920YS02001918    1.00   0.00  0.01  0.00  0.99  0.00  0.00  0.00  0.00  0.00
  YS02001923YS02001920    1.00   0.00  0.00  0.00  1.00  0.00  0.00  0.00  1.00  0.00
  YS02001926YS02001923    1.00   0.00  0.07  0.00  0.00  0.00  0.93  0.00  0.00  0.00
  YS02001929YS02001926    1.00   0.00  0.13  0.00  0.87  0.00  0.00  0.00  0.87  0.00
  YS02006553YS02006556    1.00   0.01  0.00  0.00  0.99  0.00  0.00  0.00  0.03  0.00
  YS02006556YS02006558    1.00   0.00  0.00  0.00  1.00  0.00  0.00  0.00  0.00  0.00
  YS02006558YS02006561    1.00   0.14  0.00  0.00  0.00  0.86  0.00  0.00  0.22  0.00
  YS02006561YS02001783    1.00   0.14  0.00  0.00  0.81  0.04  0.00  0.00  0.80  0.00
  YS02163301YS02001633    1.00   0.00  0.13  0.00  0.87  0.00  0.00  0.00  0.00  0.00
  YS02163601YS02164001    1.00   0.00  0.08  0.00  0.92  0.00  0.00  0.00  0.00  0.00
  YS02164001YS02001641    1.00   0.01  0.07  0.00  0.92  0.00  0.00  0.00  0.05  0.00
  
  
  *************************
  Conduit Surcharge Summary
  *************************
  
  ----------------------------------------------------------------------------
                                                           Hours        Hours 
                         --------- Hours Full --------   Above Full   Capacity
  Conduit                Both Ends  Upstream  Dnstream   Normal Flow   Limited
  ----------------------------------------------------------------------------
  WS02003072WS02003073        0.01      0.01      0.01      2.73         0.01
  WS02004404WS02004405        0.01      0.01      0.01      2.58         0.01
  WS02006109WS02006110        0.01      0.01      1.80      0.01         0.01
  WS02006110WS02006113        0.01      0.01      1.75      0.01         0.01
  WS02006111WS02006112        0.01      0.01      2.04      0.01         0.01
  WS02006228WS02006109        1.69      1.80      1.69      2.25         1.69
  WS02006229WS02006228        1.67      1.71      1.67      2.09         1.67
  WS02006230WS02006229        1.94      2.03      1.94      2.85         1.94
  WS02006231WS02006230        0.01      0.01      0.01      2.70         0.01
  WS02006232WS02006231        0.01      0.01      1.82      0.01         0.01
  WS02006234WS02006232        1.62      1.62      1.82      0.01         0.01
  WS02006235WS02006234        0.01      0.01      1.71      2.62         0.01
  WS02006238WS02006235        1.72      1.72      1.83      0.01         0.01
  WS02006239WS02006238        1.76      1.81      1.76      2.14         1.76
  WS02006240WS02006239        1.72      1.74      1.72      2.15         1.72
  WS02006242WS02006240        1.72      1.72      1.96      2.25         0.01
  WS02006243WS02006242        1.77      1.77      1.88      0.01         0.01
  WS02006245WS02006243        1.75      1.77      1.75      2.22         1.75
  WS02006247WS02006245        1.75      1.80      1.75      2.34         1.75
  WS02006248WS02006247        1.76      1.76      1.78      0.01         0.01
  WS02006249WS02006248        1.74      1.74      1.78      2.33         0.01
  WS02006251WS02006249        1.77      1.79      1.78      2.30         1.77
  WS02006252WS02006251        2.34      2.34      2.34      2.34         0.01
  WS02006256WS02006235        2.66      2.66      3.42      0.02         0.01
  YS02001590YS02001593        0.01      0.01      0.26      0.47         0.01
  YS02001593YS02001596        0.01      0.01      1.68      0.01         0.01
  YS02001596YS02001600        1.76      1.76      2.04      0.01         0.01
  YS02001600YS02001601        6.67      6.67      6.80      0.01         0.01
  YS02001601YS02001602        6.77      6.77      6.81      1.35         0.01
  YS02001602YS02001605        6.75      6.75      6.77      2.40         0.29
  YS02001605YS02001607        6.72      6.75      6.72      1.91         1.82
  YS02001607YS02001610        0.95      0.95      1.66      0.01         0.01
  YS02001610YS02001613        0.97      0.97      1.66      0.01         0.01
  YS02001613YS02001616        0.84      0.84      0.97      0.01         0.01
  YS02001616YS02001619        0.82      0.82      0.84      0.01         0.01
  YS02001619YS02001622        0.82      0.82      0.84      0.38         0.01
  YS02001622YS02001625        0.84      0.84      6.55      0.01         0.01
  YS02001625YS02001629        0.55      0.55      6.55      0.01         0.01
  YS02001629YS02163301        6.53      6.53      6.55      0.01         0.01
  YS02001633YS02163601        6.57      6.57      6.59      0.01         0.01
  YS02001641YS02001644        5.98      6.00      5.98      1.86         1.12
  YS02001644YS02001647        5.78      5.78      5.98      0.01         0.01
  YS02001647YS02001649        5.78      5.78      5.94      0.01         0.01
  YS02001649YS02001757        5.94      5.94      6.02      0.01         0.01
  YS02001652YS02001649        5.76      5.76      5.94      0.01         0.01
  YS02001655YS02001652        0.44      0.44      5.73      0.01         0.01
  YS02001658YS02001655        0.01      0.01      0.45      0.01         0.01
  YS02001748YS02001751        0.01      0.01      0.32      0.01         0.01
  YS02001751YS02001754        0.31      0.31      5.60      0.01         0.01
  YS02001754YS02001757        5.70      5.70      6.02      0.01         0.01
  YS02001757CaochengTiaoxuchi        6.02      6.02      6.44      0.01         0.01
  YS02001759YS02001757        5.93      5.93      6.02      0.01         0.01
  YS02001762YS02001759        5.90      5.90      5.93      0.01         0.01
  YS02001765YS02001762        5.85      5.85      5.90      0.01         0.01
  YS02001767YS02001765        5.81      5.81      5.85      0.01         0.01
  YS02001770YS02001767        5.81      5.81      5.81      0.01         0.25
  YS02001774YS02001770        5.79      5.79      5.88      0.01         0.01
  YS02001779YS02001774        5.54      5.54      5.88      0.01         0.01
  YS02001783YS02001784        0.16      0.16      0.35      0.01         0.01
  YS02001784YS02001785        0.20      0.35      0.20      1.03         0.19
  YS02001786YS02001788        0.10      0.20      0.10      0.49         0.09
  YS02001788YS02001790        0.11      0.11      6.53      0.01         0.01
  YS02001790YS02001791        6.53      6.53      6.53      0.01         0.01
  YS02001791YS02001793        6.53      6.53      6.55      0.01         0.01
  YS02001793JiankangQianchi        6.55      6.55      6.69      0.01         0.01
  YS02001904YS02001907        0.01      0.01      0.47      0.01         0.01
  YS02001907YS02006553        1.05      1.05      1.18      0.01         0.01
  YS02001910YS02001907        0.01      0.01      0.36      0.01         0.01
  YS02006553YS02006556        0.01      0.01      0.46      0.01         0.01
  YS02006556YS02006558        0.04      0.04      0.51      0.01         0.01
  YS02006558YS02006561        0.01      0.01      0.01      0.83         0.01
  YS02006561YS02001783        0.01      0.01      0.16      0.01         0.01
  YS02163301YS02001633        6.55      6.55      6.58      0.01         0.01
  YS02163601YS02164001        6.00      6.00      6.59      0.01         0.01
  YS02164001YS02001641        6.00      6.00      6.00      0.66         0.09
  
  
  ***************
  Pumping Summary
  ***************
  
  ---------------------------------------------------------------------------------------------------------
                                                  Min       Avg       Max     Total     Power    % Time Off
                        Percent   Number of      Flow      Flow      Flow    Volume     Usage    Pump Curve
  Pump                 Utilized   Start-Ups       LPS       LPS       LPS  10^6 ltr     Kw-hr    Low   High
  ---------------------------------------------------------------------------------------------------------
  CC-R1                    1.06           1      0.00    683.00    683.00     0.208      3.51    0.0  100.0
  CC-R2                    1.06           1      0.00    683.00    683.00     0.208      3.51    0.0  100.0
  CC-S1                   29.28           4      0.00    200.00    200.00     1.686      7.56    0.0   43.7
  CC-S2                   29.28           4      0.00    200.00    200.00     1.686      7.56    0.0   43.7
  JK-R1                    0.97           2      0.00    347.46   1000.00     0.078      0.47    0.0    0.0
  JK-R2                    0.97           2      0.00    347.46   1000.00     0.078      0.47    0.0    0.0
  JK-S                     0.97           2      0.00    104.30    300.00     0.023      0.44    0.0    0.0
  XR-1                   100.00           1      0.00     95.00     95.00     2.736     68.18    0.0    0.0
  XR-2                   100.00           1      0.00     95.00     95.00     2.736     68.18    0.0    0.0
  XR-3                   100.00           1      0.00     95.00     95.00     2.736     68.18    0.0    0.0
  XR-4                   100.00           1      0.00     95.00     95.00     2.736     68.18    0.0    0.0
  

  Analysis begun on:  Wed Nov  5 16:18:57 2025
  Analysis ended on:  Wed Nov  5 16:19:00 2025
  Total elapsed time: 00:00:03