
  EPA STORM WATER MANAGEMENT MODEL - VERSION 5.2 (Build 5.2.4)
  PYSWMM TOOLKIT API - VERSION v1.0 (2023-11-27)
  ------------------------------------------------------------

  WARNING 04: minimum elevation drop used for Conduit WS02004404WS02004405
  WARNING 03: negative offset ignored for Link YS02001904YS02001907
  
  ****************
  Analysis Options
  ****************
  Flow Units ............... LPS
  Process Models:
    Rainfall/Runoff ........ YES
    RDII ................... NO
    Snowmelt ............... NO
    Groundwater ............ NO
    Flow Routing ........... YES
    Ponding Allowed ........ NO
    Water Quality .......... NO
  Infiltration Method ...... HORTON
  Flow Routing Method ...... DYNWAVE
  Surcharge Method ......... EXTRAN
  Starting Date ............ 08/28/2015 08:00:00
  Ending Date .............. 08/28/2015 16:00:00
  Antecedent Dry Days ...... 8.0
  Report Time Step ......... 00:01:00
  Wet Time Step ............ 00:01:00
  Dry Time Step ............ 00:01:00
  Routing Time Step ........ 30.00 sec
  Variable Time Step ....... YES
  Maximum Trials ........... 8
  Number of Threads ........ 4
  Head Tolerance ........... 0.001500 m
  
  
  **************************        Volume         Depth
  Runoff Quantity Continuity     hectare-m            mm
  **************************     ---------       -------
  Initial LID Storage ......         0.049         1.488
  Total Precipitation ......         1.011        30.487
  Evaporation Loss .........         0.000         0.000
  Infiltration Loss ........         0.068         2.054
  Surface Runoff ...........         0.705        21.244
  Final Storage ............         0.288         8.685
  Continuity Error (%) .....        -0.025
  
  
  **************************        Volume        Volume
  Flow Routing Continuity        hectare-m      10^6 ltr
  **************************     ---------     ---------
  Dry Weather Inflow .......         0.602         6.020
  Wet Weather Inflow .......         0.705         7.047
  Groundwater Inflow .......         0.000         0.000
  RDII Inflow ..............         0.000         0.000
  External Inflow ..........         0.105         1.045
  External Outflow .........         1.485        14.853
  Flooding Loss ............         0.158         1.577
  Evaporation Loss .........         0.000         0.000
  Exfiltration Loss ........         0.000         0.000
  Initial Stored Volume ....         0.303         3.031
  Final Stored Volume ......         0.533         5.330
  Continuity Error (%) .....       -26.926
  
  
  *************************
  Highest Continuity Errors
  *************************
  Node YS02001774 (14.63%)
  Node YS02001583 (-8.00%)
  Node WS02006256 (-6.01%)
  Node YS02001884 (4.96%)
  Node YS02001767 (1.96%)
  
  
  ***************************
  Time-Step Critical Elements
  ***************************
  Link WS02001212WS02001213 (27.20%)
  Link WS02006238WS02006235 (23.62%)
  Link WS02006235WS02006234 (15.15%)
  Link WS02006252WS02006251 (14.95%)
  Link WS02003066WSF200 (5.46%)
  
  
  ********************************
  Highest Flow Instability Indexes
  ********************************
  Link WS02006113WS02006111 (37)
  Link WS02006111WS02006112 (22)
  Link WS02006110WS02006113 (15)
  Link WS02006256WS02006235 (14)
  Link WS02006238WS02006235 (8)
  
  
  *********************************
  Most Frequent Nonconverging Nodes
  *********************************
  Node CC-1 (3.49%)
  Node CC-2 (3.49%)
  Node JK-1 (3.49%)
  Node JK-2 (3.49%)
  Node WSC (3.49%)
  
  
  *************************
  Routing Time Step Summary
  *************************
  Minimum Time Step           :     0.01 sec
  Average Time Step           :     3.23 sec
  Maximum Time Step           :     6.46 sec
  % of Time in Steady State   :     0.00
  Average Iterations per Step :     2.44
  % of Steps Not Converging   :     3.49
  Time Step Frequencies       :
     30.000 - 13.228 sec      :     0.00 %
     13.228 -  5.833 sec      :    26.47 %
      5.833 -  2.572 sec      :    32.96 %
      2.572 -  1.134 sec      :    19.43 %
      1.134 -  0.500 sec      :    21.14 %
  
  
  ***************************
  Subcatchment Runoff Summary
  ***************************
  
  ------------------------------------------------------------------------------------------------------------------------------
                            Total      Total      Total      Total     Imperv       Perv      Total       Total     Peak  Runoff
                           Precip      Runon       Evap      Infil     Runoff     Runoff     Runoff      Runoff   Runoff   Coeff
  Subcatchment                 mm         mm         mm         mm         mm         mm         mm    10^6 ltr      LPS
  ------------------------------------------------------------------------------------------------------------------------------
  sub60                     30.49       0.00       0.00       1.24      19.78       1.59      21.36        0.28   194.05   0.701
  sub61                     30.49       0.00       0.00       1.90      19.76       2.34      22.10        0.41   279.74   0.725
  sub62                     30.49       0.00       0.00       0.84      21.06       1.08      22.13        0.61   386.57   0.726
  sub63                     30.49       0.00       0.00       3.49      16.92       3.75      20.67        0.47   304.98   0.678
  sub64                     30.49       0.00       0.00       1.67      19.26       1.89      21.15        0.51   305.63   0.694
  sub65                     30.49       0.00       0.00       1.54      20.78       1.72      22.50        0.62   354.07   0.738
  sub66                     30.49       0.00       0.00       4.02      16.34       3.00      19.33        0.90   435.51   0.634
  sub67                     30.49       0.00       0.00       0.84      21.60       1.13      22.73        0.42   308.66   0.745
  sub68                     30.49       0.00       0.00       1.46      19.07       1.79      20.86        0.57   382.61   0.684
  sub69                     30.49       0.00       0.00       1.29      20.46       2.33      22.79        0.84   465.23   0.747
  sub70                     30.49       0.00       0.00       4.29      16.37       4.20      20.57        0.59   253.98   0.675
  sub71                     30.49       0.00       0.00       0.78      19.12       0.97      20.09        0.53   314.47   0.659
  sub72                     30.49       0.00       0.00       0.74      20.64       0.89      21.53        0.30   158.81   0.706
  

  ***********************
  LID Performance Summary
  ***********************

  --------------------------------------------------------------------------------------------------------------------
                                         Total      Evap     Infil   Surface    Drain    Initial     Final  Continuity
                                        Inflow      Loss      Loss   Outflow   Outflow   Storage   Storage       Error
  Subcatchment      LID Control             mm        mm        mm        mm        mm        mm        mm           %
  --------------------------------------------------------------------------------------------------------------------
  sub60             GreenRoof            30.49      0.00      0.00      0.00      0.00      7.05     37.55       -0.04
  sub61             GreenRoof            30.49      0.00      0.00      0.00      0.00      7.05     37.55       -0.04
  sub62             GreenRoof            30.49      0.00      0.00      0.00      0.00      7.05     37.55       -0.04
  sub63             GreenRoof            30.49      0.00      0.00      0.00      0.00      7.05     37.55       -0.04
  sub64             GreenRoof            30.49      0.00      0.00      0.00      0.00      7.05     37.55       -0.04
  sub65             GreenRoof            30.49      0.00      0.00      0.00      0.00      7.05     37.55       -0.04
  sub66             GreenRoof            30.49      0.00      0.00      0.00      0.00      7.05     37.55       -0.04
  sub67             GreenRoof            30.49      0.00      0.00      0.00      0.00      7.05     37.55       -0.04
  sub68             GreenRoof            30.49      0.00      0.00      0.00      0.00      7.05     37.55       -0.04
  sub69             GreenRoof            30.49      0.00      0.00      0.00      0.00      7.05     37.55       -0.04
  sub70             GreenRoof            30.49      0.00      0.00      0.00      0.00      7.05     37.55       -0.04
  sub71             GreenRoof            30.49      0.00      0.00      0.00      0.00      7.05     37.55       -0.04
  sub72             GreenRoof            30.49      0.00      0.00      0.00      0.00      7.05     37.55       -0.04
  
  ******************
  Node Depth Summary
  ******************
  
  ---------------------------------------------------------------------------------
                                 Average  Maximum  Maximum  Time of Max    Reported
                                   Depth    Depth      HGL   Occurrence   Max Depth
  Node                 Type       Meters   Meters   Meters  days hr:min      Meters
  ---------------------------------------------------------------------------------
  WS02001211           JUNCTION     0.76     0.78     5.62     0  02:49        0.78
  WS02001212           JUNCTION     0.46     0.49     5.55     0  02:51        0.49
  WS02001213           JUNCTION     0.68     0.73     5.49     0  02:48        0.73
  WS02003059           JUNCTION     0.72     0.78     5.47     0  02:48        0.78
  WS02003060           JUNCTION     0.37     0.47     5.41     0  02:47        0.47
  WS02003066           JUNCTION     0.15     0.27     5.82     0  02:47        0.27
  WS02003067           JUNCTION     0.42     0.65     5.97     0  02:46        0.65
  WS02003069           JUNCTION     0.41     0.54     5.12     0  02:48        0.54
  WS02003072           JUNCTION     0.48     0.60     4.97     0  02:48        0.60
  WS02003073           JUNCTION     0.29     0.37     4.43     0  02:49        0.37
  WS02004138           JUNCTION     0.19     0.20     7.45     0  00:00        0.19
  WS02004139           JUNCTION     0.71     0.73     5.64     0  02:50        0.73
  WS02004401           JUNCTION     0.50     0.75     6.75     0  02:30        0.75
  WS02004402           JUNCTION     0.54     0.78     6.74     0  02:31        0.78
  WS02004403           JUNCTION     0.56     0.80     6.73     0  02:31        0.80
  WS02004404           JUNCTION     0.63     0.88     6.73     0  02:31        0.88
  WS02004405           JUNCTION     0.63     0.87     6.72     0  02:31        0.87
  WS02004406           JUNCTION     0.65     0.88     6.71     0  02:31        0.88
  WS02004407           JUNCTION     0.13     0.26     6.57     0  02:28        0.26
  WS02004409           JUNCTION     0.29     0.57     6.34     0  02:45        0.57
  WS02004410           JUNCTION     0.32     0.59     6.31     0  02:45        0.59
  WS02004411           JUNCTION     0.34     0.61     6.29     0  02:46        0.61
  WS02004412           JUNCTION     0.37     0.62     6.26     0  02:46        0.62
  WS02004413           JUNCTION     0.52     0.79     6.26     0  02:46        0.79
  WS02006109           JUNCTION     0.56     0.83     7.45     0  02:24        0.83
  WS02006110           JUNCTION     0.57     0.82     7.41     0  02:32        0.82
  WS02006111           JUNCTION     0.14     0.25     6.96     0  02:26        0.25
  WS02006112           JUNCTION     0.65     0.93     6.82     0  02:26        0.93
  WS02006113           JUNCTION     0.21     0.39     7.29     0  03:26        0.39
  WS02006115           JUNCTION     0.39     0.64     6.78     0  02:30        0.64
  WS02006116           JUNCTION     0.47     0.73     6.77     0  02:30        0.73
  WS02006228           JUNCTION     0.55     0.84     7.49     0  02:13        0.84
  WS02006229           JUNCTION     0.52     0.82     7.52     0  02:25        0.82
  WS02006230           JUNCTION     0.50     0.86     7.60     0  02:26        0.86
  WS02006231           JUNCTION     0.31     0.60     7.72     0  02:16        0.60
  WS02006232           JUNCTION     0.43     0.75     7.79     0  02:16        0.75
  WS02006234           JUNCTION     0.34     0.71     7.87     0  02:16        0.71
  WS02006235           JUNCTION     0.38     0.76     7.93     0  02:17        0.76
  WS02006238           JUNCTION     0.40     0.81     7.95     0  02:15        0.80
  WS02006239           JUNCTION     0.38     0.80     8.01     0  02:14        0.80
  WS02006240           JUNCTION     0.36     0.79     8.08     0  02:15        0.78
  WS02006242           JUNCTION     0.43     0.90     8.17     0  02:16        0.90
  WS02006243           JUNCTION     0.36     0.84     8.26     0  02:14        0.83
  WS02006245           JUNCTION     0.37     0.85     8.34     0  02:17        0.85
  WS02006247           JUNCTION     0.38     0.89     8.39     0  02:16        0.88
  WS02006248           JUNCTION     0.36     0.86     8.44     0  02:16        0.85
  WS02006249           JUNCTION     0.38     0.89     8.49     0  02:13        0.89
  WS02006251           JUNCTION     0.38     0.91     8.58     0  02:15        0.91
  WS02006252           JUNCTION     0.27     1.50     9.74     0  00:00        0.59
  WS02006256           JUNCTION     0.61     2.35     9.28     0  00:00        2.35
  WSF200               JUNCTION     0.12     0.25     5.48     0  02:37        0.25
  YS02001580           JUNCTION     0.03     1.05     9.59     0  02:13        1.05
  YS02001583           JUNCTION     0.06     1.02     9.51     0  02:13        0.96
  YS02001586           JUNCTION     0.10     1.13     9.30     0  02:13        1.13
  YS02001590           JUNCTION     0.18     1.40     9.26     0  02:13        1.40
  YS02001593           JUNCTION     0.12     1.35     9.21     0  02:13        1.29
  YS02001596           JUNCTION     0.17     1.69     9.11     0  02:13        1.65
  YS02001600           JUNCTION     0.22     1.87     9.00     0  02:13        1.87
  YS02001601           JUNCTION     0.40     2.06     8.90     0  02:13        2.06
  YS02001602           JUNCTION     0.32     1.87     8.77     0  02:13        1.87
  YS02001605           JUNCTION     0.29     1.77     8.68     0  02:13        1.75
  YS02001607           JUNCTION     0.30     1.63     8.48     0  02:13        1.62
  YS02001610           JUNCTION     0.34     1.68     8.48     0  02:13        1.68
  YS02001613           JUNCTION     0.30     1.64     8.49     0  02:13        1.58
  YS02001616           JUNCTION     0.23     1.56     8.48     0  02:13        1.46
  YS02001619           JUNCTION     0.21     1.52     8.45     0  02:13        1.40
  YS02001622           JUNCTION     0.20     1.49     8.39     0  02:13        1.36
  YS02001625           JUNCTION     0.46     1.77     8.37     0  02:13        1.58
  YS02001629           JUNCTION     0.44     1.85     8.40     0  02:13        1.58
  YS02001633           JUNCTION     0.52     1.76     8.21     0  02:13        1.46
  YS02001641           JUNCTION     0.51     1.36     7.80     0  02:13        1.22
  YS02001644           JUNCTION     0.51     1.20     7.63     0  02:13        1.16
  YS02001647           JUNCTION     0.31     0.80     7.41     0  02:16        0.80
  YS02001649           JUNCTION     0.47     0.93     7.32     0  02:15        0.89
  YS02001652           JUNCTION     0.30     0.72     7.32     0  02:15        0.69
  YS02001655           JUNCTION     0.11     0.46     7.31     0  02:15        0.44
  YS02001658           JUNCTION     0.04     0.25     7.39     0  02:14        0.24
  YS02001661           JUNCTION     0.11     0.30     7.71     0  02:14        0.30
  YS02001664           JUNCTION     0.04     0.21     8.13     0  02:14        0.21
  YS02001745           JUNCTION     0.03     0.19     7.70     0  02:13        0.18
  YS02001748           JUNCTION     0.04     0.21     7.29     0  02:13        0.21
  YS02001751           JUNCTION     0.08     0.28     7.16     0  02:18        0.27
  YS02001754           JUNCTION     0.28     0.60     7.21     0  02:18        0.55
  YS02001757           JUNCTION     0.56     0.91     7.18     0  02:18        0.89
  YS02001759           JUNCTION     0.48     0.83     7.19     0  02:17        0.81
  YS02001762           JUNCTION     0.45     0.79     7.19     0  02:18        0.79
  YS02001765           JUNCTION     0.41     0.75     7.20     0  02:18        0.74
  YS02001767           JUNCTION     0.38     0.71     7.20     0  02:17        0.69
  YS02001770           JUNCTION     0.39     0.74     7.23     0  02:16        0.74
  YS02001774           JUNCTION     0.45     0.81     7.23     0  02:16        0.80
  YS02001779           JUNCTION     0.22     0.56     7.24     0  02:17        0.53
  YS02001783           JUNCTION     0.42     1.36     7.51     0  02:14        1.21
  YS02001784           JUNCTION     0.48     1.39     7.45     0  02:14        1.18
  YS02001786           JUNCTION     0.49     1.40     7.43     0  02:14        1.07
  YS02001788           JUNCTION     0.51     1.47     7.45     0  02:14        0.99
  YS02001790           JUNCTION     0.75     1.51     7.16     0  02:14        1.22
  YS02001791           JUNCTION     0.86     1.43     6.90     0  02:14        1.25
  YS02001793           JUNCTION     1.31     1.89     6.72     0  02:14        1.80
  YS02001882           JUNCTION     0.21     1.15     7.86     0  02:19        1.10
  YS02001884           JUNCTION     0.29     1.24     7.86     0  02:19        1.20
  YS02001887           JUNCTION     0.37     1.32     7.86     0  02:19        1.28
  YS02001890           JUNCTION     0.40     1.35     7.86     0  02:19        1.32
  YS02001895           JUNCTION     0.18     1.11     7.85     0  02:19        1.08
  YS02001898           JUNCTION     0.19     1.12     7.85     0  02:19        1.09
  YS02001901           JUNCTION     0.30     1.24     7.85     0  02:19        1.22
  YS02001904           JUNCTION     0.28     1.21     7.84     0  02:19        1.20
  YS02001907           JUNCTION     0.59     1.55     7.84     0  02:19        1.54
  YS02001910           JUNCTION     0.39     1.35     7.86     0  02:19        1.34
  YS02001915           JUNCTION     0.20     1.16     7.88     0  02:16        1.14
  YS02001918           JUNCTION     0.09     0.81     7.88     0  02:19        0.80
  YS02001920           JUNCTION     0.16     0.87     7.87     0  02:19        0.86
  YS02001923           JUNCTION     0.05     0.62     7.88     0  02:18        0.59
  YS02001926           JUNCTION     0.09     0.43     7.88     0  02:19        0.43
  YS02001929           JUNCTION     0.04     0.19     7.88     0  02:15        0.19
  YS02006553           JUNCTION     0.59     1.55     7.83     0  02:19        1.53
  YS02006556           JUNCTION     0.57     1.50     7.81     0  02:19        1.48
  YS02006558           JUNCTION     0.61     1.54     7.80     0  02:19        1.51
  YS02006561           JUNCTION     0.10     0.78     7.44     0  02:19        0.76
  YS02163301           JUNCTION     0.46     1.80     8.31     0  02:13        1.46
  YS02163601           JUNCTION     0.56     1.62     8.02     0  02:13        1.39
  YS02164001           JUNCTION     0.50     1.45     7.91     0  02:13        1.26
  CC-1                 OUTFALL      0.00     0.00     0.00     0  00:00        0.00
  CC-2                 OUTFALL      0.00     0.00     0.00     0  00:00        0.00
  JK-1                 OUTFALL      0.00     0.00     0.00     0  00:00        0.00
  JK-2                 OUTFALL      0.00     0.00     0.00     0  00:00        0.00
  WSC                  OUTFALL      0.29     0.37     1.04     0  02:49        0.37
  CC-storage           STORAGE      1.20     1.51     7.01     0  02:56        1.51
  JK-storage           STORAGE      4.48     5.80     6.60     0  02:14        5.80
  XR-storage           STORAGE      0.26     5.00     3.00     0  00:00        4.91
  
  
  *******************
  Node Inflow Summary
  *******************
  
  -------------------------------------------------------------------------------------------------
                                  Maximum  Maximum                  Lateral       Total        Flow
                                  Lateral    Total  Time of Max      Inflow      Inflow     Balance
                                   Inflow   Inflow   Occurrence      Volume      Volume       Error
  Node                 Type           LPS      LPS  days hr:min    10^6 ltr    10^6 ltr     Percent
  -------------------------------------------------------------------------------------------------
  WS02001211           JUNCTION      7.35   389.13     0  03:41       0.212        11.1       0.358
  WS02001212           JUNCTION      0.00   390.86     0  03:41           0        11.1       0.218
  WS02001213           JUNCTION      0.00   392.61     0  03:40           0          11       0.257
  WS02003059           JUNCTION      0.00   395.66     0  03:40           0          11       0.356
  WS02003060           JUNCTION     16.53   816.02     0  02:47       0.476        14.4       0.218
  WS02003066           JUNCTION      0.00   411.84     0  02:46           0        2.92       0.148
  WS02003067           JUNCTION      0.00   411.84     0  02:46           0        2.93       0.309
  WS02003069           JUNCTION      0.32   816.33     0  02:47     0.00922        14.3       0.235
  WS02003072           JUNCTION      0.00   816.33     0  02:48           0        14.3       0.283
  WS02003073           JUNCTION      1.82   818.14     0  02:48      0.0524        14.3       0.322
  WS02004138           JUNCTION      0.00   380.00     0  00:00           0        10.9       0.059
  WS02004139           JUNCTION      0.32   395.52     0  00:00     0.00924        10.9       0.415
  WS02004401           JUNCTION      0.00   412.07     0  02:27           0        3.14       0.606
  WS02004402           JUNCTION      0.00   411.97     0  02:30           0        3.12       0.582
  WS02004403           JUNCTION      0.00   411.93     0  02:31           0         3.1       0.540
  WS02004404           JUNCTION      0.16   412.12     0  02:27     0.00467        3.09       0.415
  WS02004405           JUNCTION      0.04   412.16     0  02:27      0.0011        3.08       0.621
  WS02004406           JUNCTION      0.00   412.16     0  02:33           0        3.06       1.031
  WS02004407           JUNCTION      0.00   411.99     0  02:28           0        3.03       0.209
  WS02004409           JUNCTION      0.00   411.94     0  02:28           0        3.02       0.485
  WS02004410           JUNCTION      0.00   411.90     0  02:45           0        3.01       0.568
  WS02004411           JUNCTION      0.00   411.88     0  02:45           0        2.99       0.593
  WS02004412           JUNCTION      0.00   411.87     0  02:46           0        2.98       0.653
  WS02004413           JUNCTION      0.00   411.89     0  02:36           0        2.96       0.988
  WS02006109           JUNCTION      1.23   411.73     0  02:27      0.0354        3.23       0.363
  WS02006110           JUNCTION      0.00   411.74     0  02:27           0        3.22       0.432
  WS02006111           JUNCTION      0.00   423.73     0  03:26           0         3.2       0.098
  WS02006112           JUNCTION      0.00   413.73     0  02:26           0         3.2       0.851
  WS02006113           JUNCTION      0.00   411.96     0  02:26           0        3.21       0.195
  WS02006115           JUNCTION      0.00   412.31     0  02:26           0        3.17       0.531
  WS02006116           JUNCTION      0.00   412.09     0  02:27           0        3.16       0.444
  WS02006228           JUNCTION      0.00   410.50     0  02:27           0         3.2       0.187
  WS02006229           JUNCTION      0.00   410.48     0  02:17           0        3.21       0.296
  WS02006230           JUNCTION     10.28   410.52     0  02:16       0.296        3.22       0.267
  WS02006231           JUNCTION      0.00   400.37     0  02:16           0        2.93       0.134
  WS02006232           JUNCTION      0.00   400.40     0  02:16           0        2.95       0.592
  WS02006234           JUNCTION      0.00   401.45     0  02:16           0        2.95      -0.084
  WS02006235           JUNCTION      0.00   401.57     0  02:15           0        2.97       0.414
  WS02006238           JUNCTION      0.00   400.76     0  02:14           0        2.94      -0.437
  WS02006239           JUNCTION      0.00   400.80     0  02:16           0        2.93      -0.200
  WS02006240           JUNCTION      0.00   400.60     0  02:16           0        2.92      -0.063
  WS02006242           JUNCTION      0.00   400.53     0  02:16           0        2.92       0.075
  WS02006243           JUNCTION      0.00   401.08     0  02:16           0        2.92      -0.114
  WS02006245           JUNCTION      0.00   400.71     0  02:18           0        2.94       0.685
  WS02006247           JUNCTION      0.00   400.70     0  02:16           0        2.94       0.036
  WS02006248           JUNCTION      0.00   400.96     0  07:42           0        2.94       0.126
  WS02006249           JUNCTION      0.00   465.16     0  07:31           0        2.96       0.533
  WS02006251           JUNCTION      0.08   403.35     0  07:31     0.00222        2.96      -0.003
  WS02006252           JUNCTION      0.00   400.00     0  00:00           0        2.95      -0.098
  WS02006256           JUNCTION      0.00   300.00     0  00:00           0      0.0243      -5.669
  WSF200               JUNCTION      0.00   411.84     0  02:47           0        2.91       0.136
  YS02001580           JUNCTION      0.00   114.94     0  02:13           0      0.0041      -3.233
  YS02001583           JUNCTION      0.00   187.13     0  02:13           0      0.0146      -7.410
  YS02001586           JUNCTION    253.98   262.75     0  02:24       0.594       0.606       0.242
  YS02001590           JUNCTION      0.00   258.90     0  02:14           0       0.592      -0.045
  YS02001593           JUNCTION      0.00   259.40     0  02:14           0       0.592       0.030
  YS02001596           JUNCTION      0.00   260.58     0  02:14           0       0.592      -0.017
  YS02001600           JUNCTION      0.00   261.30     0  02:14           0       0.592       0.011
  YS02001601           JUNCTION    465.23   726.33     0  02:14       0.844        1.44       0.052
  YS02001602           JUNCTION      0.00   540.03     0  02:13           0        1.35       0.030
  YS02001605           JUNCTION      0.00   540.42     0  02:13           0        1.35       0.039
  YS02001607           JUNCTION      0.00   540.78     0  02:13           0        1.35       0.138
  YS02001610           JUNCTION      0.00   530.20     0  02:13           0        1.35       0.167
  YS02001613           JUNCTION      0.00   536.01     0  02:13           0        1.35       0.117
  YS02001616           JUNCTION      0.00   539.35     0  02:13           0        1.34       0.026
  YS02001619           JUNCTION    435.51   935.78     0  02:13       0.902        2.25       0.000
  YS02001622           JUNCTION      0.00   922.09     0  02:13           0        2.24      -0.014
  YS02001625           JUNCTION      0.00   925.01     0  02:13           0        2.25       0.404
  YS02001629           JUNCTION      0.00   925.24     0  02:13           0        2.24       0.148
  YS02001633           JUNCTION    354.27  1257.63     0  02:14       0.625        2.86       0.428
  YS02001641           JUNCTION      0.00  1255.22     0  02:14           0        2.85       0.306
  YS02001644           JUNCTION    305.66  1569.64     0  02:14       0.509        3.35       0.305
  YS02001647           JUNCTION      0.00  1576.72     0  02:14           0        3.34       0.193
  YS02001649           JUNCTION      0.00  1920.23     0  02:15           0        3.82       0.439
  YS02001652           JUNCTION      0.00   383.76     0  02:15           0       0.489       0.780
  YS02001655           JUNCTION      0.15   309.60     0  02:14     0.00443       0.475       0.241
  YS02001658           JUNCTION      0.00   304.47     0  02:14           0       0.469      -0.037
  YS02001661           JUNCTION      0.00   304.76     0  02:14           0       0.469       0.072
  YS02001664           JUNCTION    304.98   304.98     0  02:14       0.469       0.469      -0.002
  YS02001745           JUNCTION    194.06   194.06     0  02:14       0.281       0.281      -0.001
  YS02001748           JUNCTION      0.04   194.81     0  02:13      0.0013       0.282      -0.029
  YS02001751           JUNCTION      0.01   195.44     0  02:13    0.000317       0.298       0.316
  YS02001754           JUNCTION      0.26   218.75     0  02:18     0.00749       0.381       1.020
  YS02001757           JUNCTION      0.00  2570.44     0  02:18           0        5.15       1.204
  YS02001759           JUNCTION    279.78   605.59     0  02:18       0.407        1.02       1.126
  YS02001762           JUNCTION      0.00   379.68     0  02:17           0        0.62       1.561
  YS02001765           JUNCTION      0.00   385.56     0  02:17           0       0.625       1.573
  YS02001767           JUNCTION      0.54   370.97     0  02:18      0.0154        0.63       1.996
  YS02001770           JUNCTION    386.72   386.72     0  02:14       0.611       0.652       1.609
  YS02001774           JUNCTION      0.00    89.97     0  02:15           0      0.0678      17.132
  YS02001779           JUNCTION      0.01    54.58     0  02:16    0.000144       0.026      10.536
  YS02001783           JUNCTION      0.00   848.60     0  02:14           0        1.87       0.380
  YS02001784           JUNCTION      1.06   835.90     0  02:19      0.0305         1.9       0.559
  YS02001786           JUNCTION      0.06   835.72     0  02:19     0.00162        1.89       0.699
  YS02001788           JUNCTION      0.07   835.82     0  02:19     0.00204        1.88       0.735
  YS02001790           JUNCTION      0.15   835.94     0  02:19     0.00446        1.87       0.895
  YS02001791           JUNCTION      0.00   836.12     0  02:19           0        1.85       0.722
  YS02001793           JUNCTION      0.00   836.25     0  02:19           0        1.84       0.829
  YS02001882           JUNCTION      0.00    62.24     0  02:15           0      0.0123       3.711
  YS02001884           JUNCTION      0.00    99.67     0  02:15           0      0.0481       5.215
  YS02001887           JUNCTION    309.11   309.11     0  02:13       0.436       0.469       0.938
  YS02001890           JUNCTION      0.00   288.56     0  02:16           0       0.429       1.156
  YS02001895           JUNCTION      0.00   290.19     0  02:16           0       0.424       0.293
  YS02001898           JUNCTION      0.00   294.53     0  02:16           0       0.422       0.100
  YS02001901           JUNCTION      0.00   242.07     0  02:16           0       0.425       0.710
  YS02001904           JUNCTION      0.00   243.51     0  02:16           0       0.429       0.620
  YS02001907           JUNCTION      0.00   602.72     0  02:24           0        1.33       1.341
  YS02001910           JUNCTION      0.00   437.07     0  02:21           0       0.904       0.761
  YS02001915           JUNCTION    314.49   434.24     0  02:21       0.526       0.907       0.151
  YS02001918           JUNCTION      0.00   230.61     0  02:21           0       0.381       0.073
  YS02001920           JUNCTION      2.87   196.94     0  02:18      0.0827       0.381       0.277
  YS02001923           JUNCTION      0.04   161.42     0  02:19     0.00109       0.298      -0.112
  YS02001926           JUNCTION      0.05   158.75     0  02:15      0.0015       0.298       0.226
  YS02001929           JUNCTION    158.81   158.81     0  02:15       0.296       0.296      -0.003
  YS02006553           JUNCTION      0.00   602.03     0  02:24           0        1.32       0.890
  YS02006556           JUNCTION      0.00   602.84     0  02:24           0        1.32       0.602
  YS02006558           JUNCTION    383.49   839.21     0  02:14         0.6         1.9       0.174
  YS02006561           JUNCTION      0.00   839.92     0  02:14           0        1.87      -0.003
  YS02163301           JUNCTION      0.00   903.08     0  02:14           0        2.24       0.343
  YS02163601           JUNCTION      0.11  1258.15     0  02:14     0.00317        2.86       0.471
  YS02164001           JUNCTION      0.00  1257.25     0  02:14           0        2.85       0.272
  CC-1                 OUTFALL       0.00   683.00     0  00:00           0       0.208       0.000
  CC-2                 OUTFALL       0.00   683.00     0  00:00           0       0.208       0.000
  JK-1                 OUTFALL       0.00  1000.00     0  00:00           0      0.0791       0.000
  JK-2                 OUTFALL       0.00  1000.00     0  00:00           0      0.0791       0.000
  WSC                  OUTFALL       0.00   818.14     0  02:49           0        14.3       0.000
  CC-storage           STORAGE       0.00  2443.43     0  02:17           0         7.2       0.288
  JK-storage           STORAGE       0.00   841.45     0  02:12           0        1.97       0.805
  XR-storage           STORAGE     200.00   200.00     0  00:00        5.76        6.36     -41.886
  
  
  **********************
  Node Surcharge Summary
  **********************
  
  Surcharging occurs when water rises above the top of the highest conduit.
  ---------------------------------------------------------------------
                                               Max. Height   Min. Depth
                                   Hours       Above Crown    Below Rim
  Node                 Type      Surcharged         Meters       Meters
  ---------------------------------------------------------------------
  WS02006109           JUNCTION        1.29          0.015        1.805
  WS02006228           JUNCTION        1.28          0.013        2.187
  WS02006229           JUNCTION        1.30          0.024        2.426
  WS02006232           JUNCTION        1.35          0.050        1.430
  WS02006235           JUNCTION        1.30          0.053        1.237
  WS02006238           JUNCTION        1.32          0.090        1.340
  WS02006239           JUNCTION        1.30          0.064        1.226
  WS02006240           JUNCTION        1.30          0.077        1.313
  WS02006242           JUNCTION        1.39          0.172        0.648
  WS02006243           JUNCTION        1.32          0.134        0.636
  WS02006245           JUNCTION        1.32          0.144        0.706
  WS02006247           JUNCTION        1.33          0.181        0.579
  WS02006248           JUNCTION        1.31          0.136        0.244
  WS02006249           JUNCTION        1.33          0.192        0.198
  WS02006252           JUNCTION        1.93          1.100        0.000
  WS02006256           JUNCTION        3.40          2.050        0.000
  YS02001580           JUNCTION        0.05          0.450        0.000
  YS02001583           JUNCTION        0.06          0.377        0.123
  YS02001586           JUNCTION        0.21          0.510        0.000
  YS02001590           JUNCTION        0.27          0.750        0.000
  YS02001593           JUNCTION        0.27          0.726        0.114
  YS02001596           JUNCTION        0.35          0.961        0.109
  YS02001600           JUNCTION        0.45          1.190        0.000
  YS02001601           JUNCTION        0.73          1.440        0.000
  YS02001602           JUNCTION        0.63          1.270        0.000
  YS02001605           JUNCTION        0.59          1.174        0.006
  YS02001607           JUNCTION        0.22          0.635        0.045
  YS02001610           JUNCTION        0.24          0.680        0.000
  YS02001613           JUNCTION        0.21          0.645        0.055
  YS02001616           JUNCTION        0.18          0.564        0.046
  YS02001619           JUNCTION        0.16          0.525        0.085
  YS02001622           JUNCTION        0.16          0.486        0.134
  YS02001625           JUNCTION        0.31          0.768        0.012
  YS02001629           JUNCTION        0.09          0.470        0.000
  YS02001633           JUNCTION        0.32          0.740        0.320
  YS02001641           JUNCTION        0.24          0.362        0.738
  YS02001644           JUNCTION        0.19          0.201        0.719
  YS02001783           JUNCTION        0.27          0.564        1.036
  YS02001784           JUNCTION        0.27          0.586        0.904
  YS02001786           JUNCTION        0.27          0.604        0.826
  YS02001788           JUNCTION        0.27          0.669        0.811
  YS02001790           JUNCTION        5.77          0.712        0.445
  YS02001791           JUNCTION        5.77          0.631        1.289
  YS02001793           JUNCTION        5.79          0.890        1.710
  YS02001882           JUNCTION        0.10          0.146        0.684
  YS02001884           JUNCTION        0.12          0.184        0.686
  YS02001887           JUNCTION        0.16          0.270        0.680
  YS02001890           JUNCTION        0.18          0.299        0.461
  YS02001895           JUNCTION        0.09          0.108        0.642
  YS02001898           JUNCTION        0.07          0.089        0.651
  YS02001901           JUNCTION        0.15          0.240        0.630
  YS02001904           JUNCTION        0.14          0.215        0.635
  YS02001907           JUNCTION        0.33          0.542        0.408
  YS02001910           JUNCTION        0.20          0.348        0.752
  YS02001915           JUNCTION        0.10          0.161        0.839
  YS02006553           JUNCTION        0.34          0.546        0.644
  YS02006556           JUNCTION        0.27          0.462        0.888
  YS02006558           JUNCTION        0.26          0.437        0.963
  YS02163301           JUNCTION        0.30          0.796        0.234
  YS02163601           JUNCTION        0.34          0.617        0.463
  YS02164001           JUNCTION        0.25          0.452        0.648
  
  
  *********************
  Node Flooding Summary
  *********************
  
  Flooding refers to all water that overflows a node, whether it ponds or not.
  --------------------------------------------------------------------------
                                                             Total   Maximum
                                 Maximum   Time of Max       Flood    Ponded
                        Hours       Rate    Occurrence      Volume     Depth
  Node                 Flooded       LPS   days hr:min    10^6 ltr    Meters
  --------------------------------------------------------------------------
  WS02006252              0.01    245.63      0  00:00       0.000     0.000
  WS02006256              0.02    293.19      0  00:00       0.005     0.000
  YS02001580              0.01     85.53      0  02:13       0.000     0.000
  YS02001586              0.01     97.57      0  02:14       0.002     0.000
  YS02001590              0.01     11.25      0  02:13       0.000     0.000
  YS02001600              0.01      3.46      0  02:14       0.000     0.000
  YS02001601              0.16    273.25      0  02:14       0.085     0.000
  YS02001602              0.01     19.48      0  02:14       0.000     0.000
  YS02001610              0.01     16.92      0  02:13       0.000     0.000
  YS02001629              0.01     97.39      0  02:13       0.000     0.000
  JK-storage              5.77    836.30      0  02:19       1.483     0.000
  
  
  **********************
  Storage Volume Summary
  **********************
  
  ------------------------------------------------------------------------------------------------
                         Average    Avg   Evap  Exfil     Maximum    Max    Time of Max    Maximum
                          Volume   Pcnt   Pcnt   Pcnt      Volume   Pcnt     Occurrence    Outflow
  Storage Unit           1000 m³   Full   Loss   Loss     1000 m³   Full    days hr:min        LPS
  ------------------------------------------------------------------------------------------------
  CC-storage               3.344   52.2    0.0    0.0       4.211   65.7       0  02:56    1783.53
  JK-storage               0.225   77.2    0.0    0.0       0.291  100.0       0  02:14    2300.00
  XR-storage               0.031    2.2    0.0    0.0       0.600   41.7       0  00:00     380.00
  
  
  ***********************
  Outfall Loading Summary
  ***********************
  
  -----------------------------------------------------------
                         Flow       Avg       Max       Total
                         Freq      Flow      Flow      Volume
  Outfall Node           Pcnt       LPS       LPS    10^6 ltr
  -----------------------------------------------------------
  CC-1                   1.15    683.00    683.00       0.208
  CC-2                   1.15    683.00    683.00       0.208
  JK-1                   1.07    347.46   1000.00       0.079
  JK-2                   1.07    347.46   1000.00       0.079
  WSC                   99.93    531.82    818.14      14.278
  -----------------------------------------------------------
  System                20.87   2592.74   3366.35      14.853
  
  
  ********************
  Link Flow Summary
  ********************
  
  -----------------------------------------------------------------------------
                                 Maximum  Time of Max   Maximum    Max/    Max/
                                  |Flow|   Occurrence   |Veloc|    Full    Full
  Link                 Type          LPS  days hr:min     m/sec    Flow   Depth
  -----------------------------------------------------------------------------
  1                    CONDUIT    818.14     0  02:49      3.15    0.28    0.37
  WS02001211WS02001212 CONDUIT    390.86     0  03:41      0.78    0.30    0.64
  WS02001212WS02001213 CONDUIT    392.61     0  03:40      1.32    0.61    0.45
  WS02001213WS02003059 CONDUIT    395.66     0  03:40      0.85    0.65    0.75
  WS02003059WS02003060 CONDUIT    399.96     0  03:40      0.95    0.26    0.63
  WS02003060WS02003069 CONDUIT    816.01     0  02:47      1.80    0.32    0.42
  WS02003066WSF200     CONDUIT    411.84     0  02:47      2.69    0.07    0.19
  WS02003067WS02003066 CONDUIT    411.84     0  02:46      1.04    0.13    0.38
  WS02003069WS02003072 CONDUIT    816.33     0  02:48      1.55    0.39    0.47
  WS02003072WS02003073 CONDUIT    816.32     0  02:48      1.64    1.76    0.45
  WS02004138WS02004139 CONDUIT    395.20     0  00:00      3.65    0.08    0.43
  WS02004139WS02001211 CONDUIT    381.78     0  03:41      0.91    0.48    0.59
  WS02004401WS02004402 CONDUIT    411.97     0  02:30      0.99    0.49    0.77
  WS02004402WS02004403 CONDUIT    411.93     0  02:31      0.99    0.59    0.79
  WS02004403WS02004404 CONDUIT    411.96     0  02:27      0.93    0.30    0.84
  WS02004404WS02004405 CONDUIT    412.12     0  02:27      1.10    4.04    0.88
  WS02004405WS02004406 CONDUIT    412.16     0  02:33      1.03    0.81    0.88
  WS02004406WS02004407 CONDUIT    411.99     0  02:28      0.89    0.18    0.57
  WS02004407WS02004409 CONDUIT    411.94     0  02:28      1.36    0.15    0.42
  WS02004409WS02004410 CONDUIT    411.90     0  02:45      0.88    0.53    0.58
  WS02004410WS02004411 CONDUIT    411.88     0  02:45      0.84    0.56    0.60
  WS02004411WS02004412 CONDUIT    411.87     0  02:46      0.81    0.59    0.61
  WS02004412WS02004413 CONDUIT    411.89     0  02:36      0.70    0.28    0.70
  WS02004413WS02003067 CONDUIT    411.84     0  02:46      0.96    0.18    0.53
  WS02006109WS02006110 CONDUIT    411.74     0  02:27      0.84    0.79    0.94
  WS02006110WS02006113 CONDUIT    411.96     0  02:26      1.03    0.37    0.75
  WS02006111WS02006112 CONDUIT    413.73     0  02:26      1.83    0.20    0.65
  WS02006112WS02006115 CONDUIT    412.31     0  02:26      0.70    0.24    0.78
  WS02006113WS02006111 CONDUIT    423.73     0  03:26      2.25    0.51    0.40
  WS02006115WS02006116 CONDUIT    412.09     0  02:27      0.98    0.53    0.66
  WS02006116WS02004401 CONDUIT    412.07     0  02:27      1.00    0.57    0.74
  WS02006228WS02006109 CONDUIT    410.50     0  02:27      1.06    1.79    1.00
  WS02006229WS02006228 CONDUIT    410.50     0  02:27      1.13    1.36    1.00
  WS02006230WS02006229 CONDUIT    410.48     0  02:17      1.22    9.14    1.00
  WS02006231WS02006230 CONDUIT    400.24     0  02:16      1.37    6.07    0.77
  WS02006232WS02006231 CONDUIT    400.37     0  02:16      1.08    0.84    0.92
  WS02006234WS02006232 CONDUIT    400.40     0  02:16      1.40    0.81    1.00
  WS02006235WS02006234 CONDUIT    401.45     0  02:16      1.30    4.24    0.99
  WS02006238WS02006235 CONDUIT    401.57     0  02:15      1.48    0.90    1.00
  WS02006239WS02006238 CONDUIT    400.76     0  02:14      1.21    1.28    1.00
  WS02006240WS02006239 CONDUIT    400.80     0  02:16      1.30    1.26    1.00
  WS02006242WS02006240 CONDUIT    400.60     0  02:16      1.17    1.59    1.00
  WS02006243WS02006242 CONDUIT    400.53     0  02:16      1.43    0.86    1.00
  WS02006245WS02006243 CONDUIT    401.08     0  02:16      1.45    1.19    1.00
  WS02006247WS02006245 CONDUIT    400.71     0  02:18      1.43    3.18    1.00
  WS02006248WS02006247 CONDUIT    400.70     0  02:16      1.45    0.87    1.00
  WS02006249WS02006248 CONDUIT    400.96     0  07:42      1.40    2.20    1.00
  WS02006251WS02006249 CONDUIT    465.16     0  07:31      1.99    1.34    1.00
  WS02006252WS02006251 CONDUIT    403.27     0  07:31     24.55    1.48    1.00
  WS02006256WS02006235 CONDUIT    288.91     0  00:00      4.23    3.06    1.00
  WSF200WS02003060     CONDUIT    411.84     0  02:47      1.43    0.09    0.30
  YS02001580YS02001583 CONDUIT    114.94     0  02:13      0.76    0.45    1.00
  YS02001583YS02001586 CONDUIT    168.29     0  02:13      0.77    0.25    1.00
  YS02001586YS02001590 CONDUIT    258.90     0  02:14      1.28    0.45    1.00
  YS02001590YS02001593 CONDUIT    259.40     0  02:14      1.03    1.63    1.00
  YS02001593YS02001596 CONDUIT    260.58     0  02:14      1.69    0.41    1.00
  YS02001596YS02001600 CONDUIT    261.30     0  02:14      1.19    0.51    1.00
  YS02001600YS02001601 CONDUIT    261.81     0  02:14      0.93    0.45    1.00
  YS02001601YS02001602 CONDUIT    540.03     0  02:13      1.91    1.95    1.00
  YS02001602YS02001605 CONDUIT    540.42     0  02:13      1.91   11.44    1.00
  YS02001605YS02001607 CONDUIT    540.78     0  02:13      1.91    2.97    1.00
  YS02001607YS02001610 CONDUIT    530.20     0  02:13      0.68    0.50    1.00
  YS02001610YS02001613 CONDUIT    536.01     0  02:13      0.68    0.62    1.00
  YS02001613YS02001616 CONDUIT    539.35     0  02:13      0.69    0.46    1.00
  YS02001616YS02001619 CONDUIT    523.43     0  02:13      0.69    0.91    1.00
  YS02001619YS02001622 CONDUIT    922.09     0  02:13      1.23    1.36    1.00
  YS02001622YS02001625 CONDUIT    925.01     0  02:13      1.18    0.49    1.00
  YS02001625YS02001629 CONDUIT    925.24     0  02:13      1.18    0.44    1.00
  YS02001629YS02163301 CONDUIT    903.08     0  02:14      1.15    1.11    1.00
  YS02001633YS02163601 CONDUIT   1258.04     0  02:14      1.60    1.32    1.00
  YS02001641YS02001644 CONDUIT   1264.47     0  02:14      1.61    4.09    1.00
  YS02001644YS02001647 CONDUIT   1576.72     0  02:14      2.16    0.93    0.90
  YS02001647YS02001649 CONDUIT   1590.20     0  02:14      2.34    0.84    0.85
  YS02001649YS02001757 CONDUIT   1898.03     0  02:15      2.57    1.15    0.90
  YS02001652YS02001649 CONDUIT    398.32     0  02:15      0.71    0.20    0.81
  YS02001655YS02001652 CONDUIT    383.76     0  02:15      1.38    0.19    0.56
  YS02001658YS02001655 CONDUIT    309.44     0  02:14      1.96    0.13    0.35
  YS02001661YS02001658 CONDUIT    304.47     0  02:14      2.12    0.12    0.24
  YS02001664YS02001661 CONDUIT    304.76     0  02:14      1.92    0.10    0.26
  YS02001745YS02001748 CONDUIT    194.77     0  02:13      1.95    0.07    0.19
  YS02001748YS02001751 CONDUIT    195.43     0  02:13      1.64    0.10    0.23
  YS02001751YS02001754 CONDUIT    218.49     0  02:18      1.49    0.11    0.40
  YS02001754YS02001757 CONDUIT    295.47     0  02:19      0.50    0.12    0.74
  YS02001757CaochengTiaoxuchi CONDUIT   2443.43     0  02:17      3.38    1.06    0.95
  YS02001759YS02001757 CONDUIT    598.93     0  02:18      0.86    0.43    0.87
  YS02001762YS02001759 CONDUIT    403.70     0  02:18      0.63    0.47    0.80
  YS02001765YS02001762 CONDUIT    379.68     0  02:17      0.71    0.36    0.77
  YS02001767YS02001765 CONDUIT    385.56     0  02:17      0.80    0.48    0.73
  YS02001770YS02001767 CONDUIT    370.43     0  02:18      0.79    1.47    0.72
  YS02001774YS02001770 CONDUIT     89.97     0  02:15      0.16    0.06    0.76
  YS02001779YS02001774 CONDUIT     54.57     0  02:16      0.10    0.03    0.68
  YS02001783YS02001784 CONDUIT    834.84     0  02:19      1.69    1.15    1.00
  YS02001784YS02001785 CONDUIT    835.67     0  02:19      1.80    1.94    1.00
  YS02001786YS02001788 CONDUIT    835.75     0  02:19      2.22    1.61    1.00
  YS02001788YS02001790 CONDUIT    835.79     0  02:19      2.33    0.62    1.00
  YS02001790YS02001791 CONDUIT    836.12     0  02:19      2.64    0.91    1.00
  YS02001791YS02001793 CONDUIT    836.25     0  02:19      5.00    0.36    1.00
  YS02001793JiankangQianchi CONDUIT    841.45     0  02:12      1.54    0.07    1.00
  YS02001882YS02001884 CONDUIT     62.24     0  02:15      0.08    0.07    1.00
  YS02001884YS02001887 CONDUIT     99.67     0  02:15      0.13    0.13    1.00
  YS02001887YS02001890 CONDUIT    288.56     0  02:16      0.37    0.49    1.00
  YS02001890YS02001895 CONDUIT    290.19     0  02:16      0.37    0.14    1.00
  YS02001895YS02001898 CONDUIT    294.53     0  02:16      0.39    0.51    1.00
  YS02001898YS02001901 CONDUIT    242.07     0  02:16      0.36    0.16    1.00
  YS02001901YS02001904 CONDUIT    243.51     0  02:16      0.36    0.38    1.00
  YS02001904YS02001907 CONDUIT    244.79     0  02:16      0.33    0.09    1.00
  YS02001907YS02006553 CONDUIT    602.03     0  02:24      0.67    0.71    1.00
  YS02001910YS02001907 CONDUIT    438.86     0  02:21      0.56    0.25    1.00
  YS02001915YS02001910 CONDUIT    437.07     0  02:21      0.56    0.22    1.00
  YS02001918YS02001915 CONDUIT    239.46     0  02:23      0.44    0.13    0.90
  YS02001920YS02001918 CONDUIT    230.61     0  02:21      0.65    0.22    0.83
  YS02001923YS02001920 CONDUIT    194.07     0  02:18      0.74    0.09    0.74
  YS02001926YS02001923 CONDUIT    161.38     0  02:19      0.92    0.23    0.42
  YS02001929YS02001926 CONDUIT    158.69     0  02:15      1.01    0.08    0.30
  YS02006553YS02006556 CONDUIT    602.84     0  02:24      0.77    0.52    1.00
  YS02006556YS02006558 CONDUIT    603.55     0  02:24      0.77    0.48    1.00
  YS02006558YS02006561 CONDUIT    839.92     0  02:14      3.32    1.86    1.00
  YS02006561YS02001783 CONDUIT    848.60     0  02:14      2.15    0.44    0.99
  YS02163301YS02001633 CONDUIT    903.36     0  02:14      1.15    0.85    1.00
  YS02163601YS02164001 CONDUIT   1257.25     0  02:14      1.60    1.11    1.00
  YS02164001YS02001641 CONDUIT   1255.22     0  02:14      1.60    1.71    1.00
  CC-R1                PUMP       683.00     0  00:00              1.00
  CC-R2                PUMP       683.00     0  00:00              1.00
  CC-S1                PUMP       200.00     0  00:00              1.00
  CC-S2                PUMP       200.00     0  00:00              1.00
  JK-R1                PUMP      1000.00     0  00:00              1.00
  JK-R2                PUMP      1000.00     0  00:00              1.00
  JK-S                 PUMP       300.00     0  00:00              1.00
  XR-1                 PUMP        95.00     0  00:00              1.00
  XR-2                 PUMP        95.00     0  00:00              1.00
  XR-3                 PUMP        95.00     0  00:00              1.00
  XR-4                 PUMP        95.00     0  00:00              1.00
  
  
  ***************************
  Flow Classification Summary
  ***************************
  
  -------------------------------------------------------------------------------------
                      Adjusted    ---------- Fraction of Time in Flow Class ---------- 
                       /Actual         Up    Down  Sub   Sup   Up    Down  Norm  Inlet 
  Conduit               Length    Dry  Dry   Dry   Crit  Crit  Crit  Crit  Ltd   Ctrl  
  -------------------------------------------------------------------------------------
  1                       1.00   0.00  0.00  0.00  0.00  1.00  0.00  0.00  0.20  0.00
  WS02001211WS02001212    1.00   0.00  0.00  0.00  1.00  0.00  0.00  0.00  0.00  0.00
  WS02001212WS02001213    1.00   0.00  0.00  0.00  0.37  0.00  0.62  0.00  0.00  0.00
  WS02001213WS02003059    1.00   0.00  0.00  0.00  0.99  0.00  0.00  0.00  0.00  0.00
  WS02003059WS02003060    1.00   0.00  0.00  0.00  1.00  0.00  0.00  0.00  0.00  0.00
  WS02003060WS02003069    1.00   0.00  0.00  0.00  0.99  0.01  0.00  0.00  0.00  0.00
  WS02003066WSF200        1.00   0.02  0.10  0.00  0.00  0.88  0.00  0.00  0.86  0.00
  WS02003067WS02003066    1.00   0.10  0.02  0.00  0.89  0.00  0.00  0.00  0.00  0.00
  WS02003069WS02003072    1.00   0.00  0.00  0.00  0.99  0.01  0.00  0.00  0.00  0.00
  WS02003072WS02003073    1.00   0.00  0.00  0.00  0.00  0.00  0.00  1.00  0.00  0.00
  WS02004138WS02004139    1.00   0.00  0.00  0.00  0.99  0.01  0.00  0.00  1.00  0.00
  WS02004139WS02001211    1.00   0.00  0.00  0.00  1.00  0.00  0.00  0.00  0.00  0.00
  WS02004401WS02004402    1.00   0.02  0.00  0.00  0.98  0.00  0.00  0.00  0.00  0.00
  WS02004402WS02004403    1.00   0.02  0.00  0.00  0.98  0.00  0.00  0.00  0.00  0.00
  WS02004403WS02004404    1.00   0.00  0.03  0.00  0.97  0.00  0.00  0.00  0.00  0.00
  WS02004404WS02004405    1.00   0.00  0.00  0.00  1.00  0.00  0.00  0.00  0.00  0.00
  WS02004405WS02004406    1.00   0.00  0.00  0.00  1.00  0.00  0.00  0.00  0.00  0.00
  WS02004406WS02004407    1.00   0.00  0.05  0.00  0.95  0.00  0.00  0.00  0.00  0.00
  WS02004407WS02004409    1.00   0.05  0.00  0.00  0.94  0.01  0.00  0.00  0.94  0.00
  WS02004409WS02004410    1.00   0.05  0.00  0.00  0.95  0.00  0.00  0.00  0.03  0.00
  WS02004410WS02004411    1.00   0.05  0.00  0.00  0.95  0.00  0.00  0.00  0.00  0.00
  WS02004411WS02004412    1.00   0.05  0.00  0.00  0.95  0.00  0.00  0.00  0.00  0.00
  WS02004412WS02004413    1.00   0.05  0.00  0.00  0.94  0.00  0.00  0.00  0.01  0.00
  WS02004413WS02003067    1.00   0.06  0.04  0.00  0.00  0.00  0.90  0.00  0.00  0.00
  WS02006109WS02006110    1.00   0.00  0.01  0.00  0.98  0.00  0.01  0.00  0.00  0.00
  WS02006110WS02006113    1.00   0.01  0.01  0.00  0.98  0.00  0.00  0.00  0.00  0.00
  WS02006111WS02006112    1.00   0.02  0.00  0.00  0.98  0.00  0.00  0.00  0.98  0.00
  WS02006112WS02006115    1.00   0.02  0.00  0.00  0.97  0.00  0.00  0.00  0.00  0.00
  WS02006113WS02006111    1.00   0.02  0.00  0.00  0.00  0.98  0.00  0.00  0.13  0.00
  WS02006115WS02006116    1.00   0.02  0.00  0.00  0.97  0.00  0.00  0.01  0.00  0.00
  WS02006116WS02004401    1.00   0.02  0.00  0.00  0.98  0.00  0.00  0.00  0.00  0.00
  WS02006228WS02006109    1.00   0.00  0.00  0.00  1.00  0.00  0.00  0.00  0.00  0.00
  WS02006229WS02006228    1.00   0.00  0.00  0.00  0.99  0.00  0.00  0.01  0.00  0.00
  WS02006230WS02006229    1.00   0.00  0.00  0.00  0.99  0.00  0.00  0.01  0.00  0.00
  WS02006231WS02006230    1.00   0.00  0.00  0.00  0.19  0.00  0.81  0.00  0.00  0.00
  WS02006232WS02006231    1.00   0.00  0.00  0.00  0.99  0.00  0.01  0.00  0.00  0.00
  WS02006234WS02006232    1.00   0.00  0.00  0.00  1.00  0.00  0.00  0.00  0.48  0.00
  WS02006235WS02006234    1.00   0.00  0.00  0.00  0.48  0.00  0.52  0.00  0.00  0.00
  WS02006238WS02006235    1.00   0.00  0.00  0.00  1.00  0.00  0.00  0.00  0.00  0.00
  WS02006239WS02006238    1.00   0.00  0.00  0.00  1.00  0.00  0.00  0.00  0.57  0.00
  WS02006240WS02006239    1.00   0.00  0.00  0.00  0.39  0.00  0.00  0.61  0.02  0.00
  WS02006242WS02006240    1.00   0.00  0.00  0.00  0.99  0.00  0.01  0.00  0.00  0.00
  WS02006243WS02006242    1.00   0.00  0.00  0.00  0.99  0.00  0.00  0.01  0.66  0.00
  WS02006245WS02006243    1.00   0.00  0.00  0.00  0.44  0.00  0.00  0.56  0.00  0.00
  WS02006247WS02006245    1.00   0.00  0.00  0.00  0.98  0.00  0.00  0.01  0.00  0.00
  WS02006248WS02006247    1.00   0.00  0.00  0.00  0.99  0.00  0.00  0.01  0.15  0.00
  WS02006249WS02006248    1.00   0.00  0.00  0.00  0.33  0.00  0.67  0.00  0.00  0.00
  WS02006251WS02006249    1.00   0.00  0.00  0.00  1.00  0.00  0.00  0.00  0.68  0.00
  WS02006252WS02006251    1.00   0.02  0.71  0.00  0.00  0.00  0.27  0.00  0.00  0.00
  WS02006256WS02006235    1.00   0.00  0.00  0.00  1.00  0.00  0.00  0.00  0.00  0.00
  WSF200WS02003060        1.00   0.00  0.02  0.00  0.98  0.00  0.00  0.00  0.72  0.00
  YS02001580YS02001583    1.00   0.28  0.60  0.00  0.13  0.00  0.00  0.00  0.69  0.00
  YS02001583YS02001586    1.00   0.51  0.31  0.00  0.18  0.00  0.00  0.00  0.69  0.00
  YS02001586YS02001590    1.00   0.13  0.00  0.00  0.33  0.05  0.00  0.49  0.34  0.00
  YS02001590YS02001593    1.00   0.13  0.01  0.00  0.04  0.00  0.82  0.00  0.00  0.00
  YS02001593YS02001596    1.00   0.14  0.00  0.00  0.06  0.01  0.00  0.80  0.01  0.00
  YS02001596YS02001600    1.00   0.14  0.00  0.00  0.11  0.02  0.00  0.73  0.05  0.00
  YS02001600YS02001601    1.00   0.13  0.01  0.00  0.86  0.00  0.00  0.00  0.68  0.00
  YS02001601YS02001602    1.00   0.13  0.02  0.00  0.86  0.00  0.00  0.00  0.00  0.00
  YS02001602YS02001605    1.00   0.14  0.00  0.00  0.86  0.00  0.00  0.00  0.00  0.00
  YS02001605YS02001607    1.00   0.14  0.00  0.00  0.86  0.00  0.00  0.00  0.00  0.00
  YS02001607YS02001610    1.00   0.13  0.01  0.00  0.85  0.00  0.00  0.00  0.03  0.00
  YS02001610YS02001613    1.00   0.13  0.00  0.00  0.87  0.00  0.00  0.00  0.02  0.00
  YS02001613YS02001616    1.00   0.13  0.00  0.00  0.87  0.00  0.00  0.00  0.01  0.00
  YS02001616YS02001619    1.00   0.13  0.00  0.00  0.87  0.00  0.00  0.00  0.00  0.00
  YS02001619YS02001622    1.00   0.13  0.00  0.00  0.87  0.00  0.00  0.00  0.05  0.00
  YS02001622YS02001625    1.00   0.13  0.00  0.00  0.87  0.00  0.00  0.00  0.07  0.00
  YS02001625YS02001629    1.00   0.13  0.07  0.00  0.39  0.00  0.41  0.00  0.00  0.00
  YS02001629YS02163301    1.00   0.17  0.01  0.00  0.81  0.00  0.00  0.00  0.00  0.00
  YS02001633YS02163601    1.00   0.00  0.01  0.00  0.99  0.00  0.00  0.00  0.16  0.00
  YS02001641YS02001644    1.00   0.00  0.01  0.00  0.99  0.00  0.00  0.00  0.00  0.00
  YS02001644YS02001647    1.00   0.00  0.20  0.00  0.80  0.00  0.00  0.00  0.00  0.00
  YS02001647YS02001649    1.00   0.00  0.20  0.00  0.77  0.03  0.00  0.00  0.02  0.00
  YS02001649YS02001757    1.00   0.00  0.00  0.00  0.96  0.04  0.00  0.00  0.22  0.00
  YS02001652YS02001649    1.00   0.00  0.00  0.00  0.96  0.04  0.00  0.00  0.22  0.00
  YS02001655YS02001652    1.00   0.00  0.00  0.00  0.73  0.00  0.00  0.26  0.02  0.00
  YS02001658YS02001655    1.00   0.00  0.15  0.00  0.69  0.16  0.00  0.00  0.80  0.00
  YS02001661YS02001658    1.00   0.15  0.00  0.00  0.46  0.39  0.00  0.00  0.75  0.00
  YS02001664YS02001661    1.00   0.13  0.00  0.00  0.80  0.08  0.00  0.00  0.87  0.00
  YS02001745YS02001748    1.00   0.00  0.00  0.00  0.00  0.00  0.00  1.00  0.00  0.00
  YS02001748YS02001751    1.00   0.00  0.00  0.00  0.86  0.14  0.00  0.00  0.87  0.00
  YS02001751YS02001754    1.00   0.00  0.00  0.00  0.72  0.00  0.00  0.27  0.06  0.00
  YS02001754YS02001757    1.00   0.00  0.00  0.00  1.00  0.00  0.00  0.00  0.27  0.00
  YS02001757CaochengTiaoxuchi    1.00   0.00  0.00  0.00  0.98  0.02  0.00  0.00  0.26  0.00
  YS02001759YS02001757    1.00   0.00  0.00  0.00  1.00  0.00  0.00  0.00  0.09  0.00
  YS02001762YS02001759    1.00   0.00  0.00  0.00  1.00  0.00  0.00  0.00  0.07  0.00
  YS02001765YS02001762    1.00   0.00  0.00  0.00  1.00  0.00  0.00  0.00  0.19  0.00
  YS02001767YS02001765    1.00   0.00  0.00  0.00  1.00  0.00  0.00  0.00  0.00  0.00
  YS02001770YS02001767    1.00   0.00  0.00  0.00  1.00  0.00  0.00  0.00  0.00  0.00
  YS02001774YS02001770    1.00   0.00  0.14  0.00  0.86  0.00  0.00  0.00  0.05  0.00
  YS02001779YS02001774    1.00   0.00  0.00  0.00  1.00  0.00  0.00  0.00  0.22  0.00
  YS02001783YS02001784    1.00   0.00  0.21  0.00  0.79  0.00  0.00  0.00  0.01  0.00
  YS02001784YS02001785    1.00   0.00  0.00  0.00  1.00  0.00  0.00  0.00  0.20  0.00
  YS02001786YS02001788    1.00   0.00  0.00  0.00  0.95  0.05  0.00  0.00  0.00  0.00
  YS02001788YS02001790    1.00   0.00  0.00  0.00  0.94  0.06  0.00  0.00  0.23  0.00
  YS02001790YS02001791    1.00   0.00  0.00  0.00  0.74  0.26  0.00  0.00  0.03  0.00
  YS02001791YS02001793    1.00   0.00  0.00  0.00  0.73  0.27  0.00  0.00  0.00  0.00
  YS02001793JiankangQianchi    1.00   0.00  0.00  0.00  0.94  0.06  0.00  0.00  0.25  0.00
  YS02001882YS02001884    1.00   0.17  0.02  0.00  0.82  0.00  0.00  0.00  0.00  0.00
  YS02001884YS02001887    1.00   0.06  0.05  0.00  0.89  0.00  0.00  0.00  0.00  0.00
  YS02001887YS02001890    1.00   0.00  0.00  0.00  0.97  0.00  0.03  0.00  0.00  0.00
  YS02001890YS02001895    1.00   0.00  0.19  0.00  0.81  0.00  0.00  0.00  0.00  0.00
  YS02001895YS02001898    1.00   0.19  0.00  0.00  0.79  0.00  0.02  0.00  0.00  0.00
  YS02001898YS02001901    1.00   0.19  0.01  0.00  0.80  0.00  0.00  0.00  0.01  0.00
  YS02001901YS02001904    1.00   0.19  0.00  0.00  0.81  0.00  0.00  0.00  0.00  0.00
  YS02001904YS02001907    1.00   0.00  0.19  0.00  0.81  0.00  0.00  0.00  0.00  0.00
  YS02001907YS02006553    1.00   0.00  0.02  0.00  0.98  0.00  0.00  0.00  0.00  0.00
  YS02001910YS02001907    1.00   0.00  0.00  0.00  0.97  0.00  0.00  0.03  0.12  0.00
  YS02001915YS02001910    1.00   0.00  0.00  0.00  0.97  0.03  0.00  0.00  0.19  0.00
  YS02001918YS02001915    1.00   0.00  0.01  0.00  0.98  0.02  0.00  0.00  0.81  0.00
  YS02001920YS02001918    1.00   0.00  0.01  0.00  0.99  0.00  0.00  0.00  0.00  0.00
  YS02001923YS02001920    1.00   0.00  0.00  0.00  1.00  0.00  0.00  0.00  0.97  0.00
  YS02001926YS02001923    1.00   0.00  0.07  0.00  0.02  0.00  0.91  0.00  0.00  0.00
  YS02001929YS02001926    1.00   0.00  0.13  0.00  0.87  0.00  0.00  0.00  0.87  0.00
  YS02006553YS02006556    1.00   0.01  0.00  0.00  0.99  0.00  0.00  0.00  0.03  0.00
  YS02006556YS02006558    1.00   0.00  0.00  0.00  1.00  0.00  0.00  0.00  0.00  0.00
  YS02006558YS02006561    1.00   0.21  0.00  0.00  0.03  0.76  0.00  0.00  0.17  0.00
  YS02006561YS02001783    1.00   0.21  0.00  0.00  0.73  0.06  0.00  0.00  0.73  0.00
  YS02163301YS02001633    1.00   0.00  0.17  0.00  0.83  0.00  0.00  0.00  0.00  0.00
  YS02163601YS02164001    1.00   0.00  0.08  0.00  0.92  0.00  0.00  0.00  0.00  0.00
  YS02164001YS02001641    1.00   0.01  0.07  0.00  0.92  0.00  0.00  0.00  0.06  0.00
  
  
  *************************
  Conduit Surcharge Summary
  *************************
  
  ----------------------------------------------------------------------------
                                                           Hours        Hours 
                         --------- Hours Full --------   Above Full   Capacity
  Conduit                Both Ends  Upstream  Dnstream   Normal Flow   Limited
  ----------------------------------------------------------------------------
  WS02003072WS02003073        0.01      0.01      0.01      2.35         0.01
  WS02004404WS02004405        0.01      0.01      0.01      2.31         0.01
  WS02006109WS02006110        0.01      0.01      1.34      0.01         0.01
  WS02006110WS02006113        0.01      0.01      1.32      0.01         0.01
  WS02006111WS02006112        0.01      0.01      1.53      0.01         0.01
  WS02006228WS02006109        1.29      1.34      1.29      1.92         1.29
  WS02006229WS02006228        1.28      1.30      1.28      1.61         1.28
  WS02006230WS02006229        1.45      1.55      1.45      2.77         1.45
  WS02006231WS02006230        0.01      0.01      0.01      2.53         0.01
  WS02006232WS02006231        0.01      0.01      1.35      0.01         0.01
  WS02006234WS02006232        1.26      1.26      1.35      0.01         0.01
  WS02006235WS02006234        0.01      0.01      1.30      2.36         0.01
  WS02006238WS02006235        1.30      1.30      1.36      0.01         0.01
  WS02006239WS02006238        1.32      1.35      1.32      1.68         1.32
  WS02006240WS02006239        1.30      1.31      1.30      1.69         1.30
  WS02006242WS02006240        1.30      1.30      1.47      1.86         0.01
  WS02006243WS02006242        1.32      1.32      1.39      0.01         0.01
  WS02006245WS02006243        1.32      1.32      1.32      1.78         1.31
  WS02006247WS02006245        1.32      1.34      1.32      2.15         1.32
  WS02006248WS02006247        1.32      1.32      1.33      0.01         0.01
  WS02006249WS02006248        1.31      1.31      1.33      2.12         0.01
  WS02006251WS02006249        1.33      1.34      1.33      1.88         1.33
  WS02006252WS02006251        1.92      1.92      1.93      1.93         0.01
  WS02006256WS02006235        2.43      2.43      3.40      0.02         0.01
  YS02001580YS02001583        0.05      0.05      0.11      0.01         0.01
  YS02001583YS02001586        0.06      0.06      0.21      0.01         0.01
  YS02001586YS02001590        0.22      0.22      0.27      0.01         0.01
  YS02001590YS02001593        0.27      0.27      0.28      0.28         0.01
  YS02001593YS02001596        0.28      0.28      0.35      0.01         0.01
  YS02001596YS02001600        0.38      0.38      0.45      0.01         0.01
  YS02001600YS02001601        0.49      0.49      0.73      0.01         0.01
  YS02001601YS02001602        0.63      0.63      0.76      0.46         0.01
  YS02001602YS02001605        0.59      0.59      0.63      1.58         0.01
  YS02001605YS02001607        0.55      0.59      0.55      0.69         0.55
  YS02001607YS02001610        0.22      0.22      0.24      0.01         0.01
  YS02001610YS02001613        0.21      0.21      0.24      0.01         0.01
  YS02001613YS02001616        0.18      0.18      0.21      0.01         0.01
  YS02001616YS02001619        0.16      0.16      0.18      0.01         0.01
  YS02001619YS02001622        0.16      0.16      0.16      0.30         0.15
  YS02001622YS02001625        0.16      0.16      0.31      0.01         0.01
  YS02001625YS02001629        0.09      0.09      0.31      0.01         0.01
  YS02001629YS02163301        0.30      0.30      0.30      0.20         0.18
  YS02001633YS02163601        0.32      0.32      0.34      0.23         0.22
  YS02001641YS02001644        0.19      0.24      0.19      0.80         0.19
  YS02001644YS02001647        0.01      0.01      0.19      0.01         0.01
  YS02001649YS02001757        0.01      0.01      0.01      0.10         0.01
  YS02001757CaochengTiaoxuchi        0.01      0.01      5.67      0.09         0.01
  YS02001770YS02001767        0.01      0.01      0.01      0.17         0.01
  YS02001783YS02001784        0.27      0.27      0.27      0.24         0.20
  YS02001784YS02001785        0.27      0.27      0.27      0.41         0.27
  YS02001786YS02001788        0.27      0.27      0.27      0.35         0.27
  YS02001788YS02001790        0.27      0.27      5.77      0.01         0.01
  YS02001790YS02001791        5.77      5.77      5.77      0.01         0.01
  YS02001791YS02001793        5.77      5.77      5.79      0.01         0.01
  YS02001793JiankangQianchi        5.79      5.79      6.01      0.01         0.01
  YS02001882YS02001884        0.10      0.10      0.12      0.01         0.01
  YS02001884YS02001887        0.14      0.14      0.16      0.01         0.01
  YS02001887YS02001890        0.18      0.18      0.19      0.01         0.01
  YS02001890YS02001895        0.09      0.09      0.20      0.01         0.01
  YS02001895YS02001898        0.07      0.07      0.09      0.01         0.01
  YS02001898YS02001901        0.09      0.09      0.15      0.01         0.01
  YS02001901YS02001904        0.14      0.14      0.15      0.01         0.01
  YS02001904YS02001907        0.14      0.14      0.34      0.01         0.01
  YS02001907YS02006553        0.42      0.42      0.46      0.01         0.01
  YS02001910YS02001907        0.20      0.20      0.33      0.01         0.01
  YS02001915YS02001910        0.10      0.10      0.20      0.01         0.01
  YS02001918YS02001915        0.01      0.01      0.10      0.01         0.01
  YS02006553YS02006556        0.27      0.27      0.34      0.01         0.01
  YS02006556YS02006558        0.30      0.30      0.35      0.01         0.01
  YS02006558YS02006561        0.16      0.26      0.16      0.39         0.16
  YS02006561YS02001783        0.01      0.01      0.27      0.01         0.01
  YS02163301YS02001633        0.30      0.30      0.34      0.01         0.01
  YS02163601YS02164001        0.25      0.25      0.34      0.13         0.01
  YS02164001YS02001641        0.24      0.25      0.24      0.38         0.24
  
  
  ***************
  Pumping Summary
  ***************
  
  ---------------------------------------------------------------------------------------------------------
                                                  Min       Avg       Max     Total     Power    % Time Off
                        Percent   Number of      Flow      Flow      Flow    Volume     Usage    Pump Curve
  Pump                 Utilized   Start-Ups       LPS       LPS       LPS  10^6 ltr     Kw-hr    Low   High
  ---------------------------------------------------------------------------------------------------------
  CC-R1                    1.06           1      0.00    683.00    683.00     0.208      3.51    0.0  100.0
  CC-R2                    1.06           1      0.00    683.00    683.00     0.208      3.51    0.0  100.0
  CC-S1                   27.20           5      0.00    200.00    200.00     1.566      8.98    0.0    0.0
  CC-S2                   24.07           5      0.00    200.00    200.00     1.386      8.16    0.0    0.0
  JK-R1                    0.97           2      0.00    347.46   1000.00     0.078      0.47    0.0    0.0
  JK-R2                    0.97           2      0.00    347.46   1000.00     0.078      0.47    0.0    0.0
  JK-S                     0.97           2      0.00    104.30    300.00     0.023      0.44    0.0    0.0
  XR-1                   100.00           1      0.00     95.00     95.00     2.736     68.18    0.0    0.0
  XR-2                   100.00           1      0.00     95.00     95.00     2.736     68.18    0.0    0.0
  XR-3                   100.00           1      0.00     95.00     95.00     2.736     68.18    0.0    0.0
  XR-4                   100.00           1      0.00     95.00     95.00     2.736     68.18    0.0    0.0
  

  Analysis begun on:  Wed Nov  5 16:29:16 2025
  Analysis ended on:  Wed Nov  5 16:29:18 2025
  Total elapsed time: 00:00:02