
  EPA STORM WATER MANAGEMENT MODEL - VERSION 5.2 (Build 5.2.4)
  PYSWMM TOOLKIT API - VERSION v1.0 (2023-11-27)
  ------------------------------------------------------------

  WARNING 04: minimum elevation drop used for Conduit WS02004404WS02004405
  WARNING 03: negative offset ignored for Link YS02001904YS02001907
  
  ****************
  Analysis Options
  ****************
  Flow Units ............... LPS
  Process Models:
    Rainfall/Runoff ........ YES
    RDII ................... NO
    Snowmelt ............... NO
    Groundwater ............ NO
    Flow Routing ........... YES
    Ponding Allowed ........ NO
    Water Quality .......... NO
  Infiltration Method ...... HORTON
  Flow Routing Method ...... DYNWAVE
  Surcharge Method ......... EXTRAN
  Starting Date ............ 08/28/2015 08:00:00
  Ending Date .............. 08/28/2015 16:00:00
  Antecedent Dry Days ...... 8.0
  Report Time Step ......... 00:01:00
  Wet Time Step ............ 00:01:00
  Dry Time Step ............ 00:01:00
  Routing Time Step ........ 30.00 sec
  Variable Time Step ....... YES
  Maximum Trials ........... 8
  Number of Threads ........ 4
  Head Tolerance ........... 0.001500 m
  
  
  **************************        Volume         Depth
  Runoff Quantity Continuity     hectare-m            mm
  **************************     ---------       -------
  Initial LID Storage ......         0.049         1.488
  Total Precipitation ......         1.401        42.234
  Evaporation Loss .........         0.000         0.000
  Infiltration Loss ........         0.071         2.147
  Surface Runoff ...........         1.009        30.421
  Final Storage ............         0.370        11.164
  Continuity Error (%) .....        -0.025
  
  
  **************************        Volume        Volume
  Flow Routing Continuity        hectare-m      10^6 ltr
  **************************     ---------     ---------
  Dry Weather Inflow .......         0.602         6.020
  Wet Weather Inflow .......         1.009        10.090
  Groundwater Inflow .......         0.000         0.000
  RDII Inflow ..............         0.000         0.000
  External Inflow ..........         0.105         1.045
  External Outflow .........         1.513        15.132
  Flooding Loss ............         0.295         2.946
  Evaporation Loss .........         0.000         0.000
  Exfiltration Loss ........         0.000         0.000
  Initial Stored Volume ....         0.303         3.031
  Final Stored Volume ......         0.670         6.704
  Continuity Error (%) .....       -22.768
  
  
  *************************
  Highest Continuity Errors
  *************************
  Node YS02001774 (28.75%)
  Node YS02001583 (-12.92%)
  Node WS02006256 (-5.98%)
  Node YS02001884 (5.08%)
  Node YS02001767 (3.44%)
  
  
  ***************************
  Time-Step Critical Elements
  ***************************
  Link WS02006252WS02006251 (21.99%)
  Link WS02001212WS02001213 (21.40%)
  Link WS02006238WS02006235 (17.81%)
  Link WS02006235WS02006234 (10.24%)
  Link YS02164001YS02001641 (4.88%)
  
  
  ********************************
  Highest Flow Instability Indexes
  ********************************
  Link WS02006113WS02006111 (39)
  Link WS02006111WS02006112 (22)
  Link WS02006110WS02006113 (15)
  Link WS02006256WS02006235 (14)
  Link WS02006238WS02006235 (10)
  
  
  *********************************
  Most Frequent Nonconverging Nodes
  *********************************
  Node CC-1 (4.61%)
  Node CC-2 (4.61%)
  Node JK-1 (4.61%)
  Node JK-2 (4.61%)
  Node WSC (4.61%)
  
  
  *************************
  Routing Time Step Summary
  *************************
  Minimum Time Step           :     0.03 sec
  Average Time Step           :     2.87 sec
  Maximum Time Step           :     6.46 sec
  % of Time in Steady State   :     0.00
  Average Iterations per Step :     2.53
  % of Steps Not Converging   :     4.61
  Time Step Frequencies       :
     30.000 - 13.228 sec      :     0.00 %
     13.228 -  5.833 sec      :    20.95 %
      5.833 -  2.572 sec      :    29.22 %
      2.572 -  1.134 sec      :    19.71 %
      1.134 -  0.500 sec      :    30.12 %
  
  
  ***************************
  Subcatchment Runoff Summary
  ***************************
  
  ------------------------------------------------------------------------------------------------------------------------------
                            Total      Total      Total      Total     Imperv       Perv      Total       Total     Peak  Runoff
                           Precip      Runon       Evap      Infil     Runoff     Runoff     Runoff      Runoff   Runoff   Coeff
  Subcatchment                 mm         mm         mm         mm         mm         mm         mm    10^6 ltr      LPS
  ------------------------------------------------------------------------------------------------------------------------------
  sub60                     42.23       0.00       0.00       1.29      27.76       2.62      30.38        0.40   290.86   0.719
  sub61                     42.23       0.00       0.00       1.98      27.73       3.89      31.63        0.58   420.93   0.749
  sub62                     42.23       0.00       0.00       0.88      29.56       1.78      31.34        0.86   575.88   0.742
  sub63                     42.23       0.00       0.00       3.62      23.75       6.41      30.16        0.68   462.46   0.714
  sub64                     42.23       0.00       0.00       1.74      27.04       3.20      30.24        0.73   457.75   0.716
  sub65                     42.23       0.00       0.00       1.59      29.18       2.92      32.10        0.88   533.38   0.760
  sub66                     42.23       0.00       0.00       4.20      22.95       5.51      28.46        1.33   661.66   0.674
  sub67                     42.23       0.00       0.00       0.88      30.31       1.85      32.16        0.60   455.96   0.761
  sub68                     42.23       0.00       0.00       1.52      26.77       2.99      29.75        0.82   573.78   0.704
  sub69                     42.23       0.00       0.00       1.36      28.37       3.66      32.04        1.19   695.76   0.759
  sub70                     42.23       0.00       0.00       4.55      22.71       7.21      29.92        0.86   383.20   0.708
  sub71                     42.23       0.00       0.00       0.81      26.85       1.61      28.45        0.74   467.54   0.674
  sub72                     42.23       0.00       0.00       0.77      28.99       1.49      30.48        0.42   237.46   0.722
  

  ***********************
  LID Performance Summary
  ***********************

  --------------------------------------------------------------------------------------------------------------------
                                         Total      Evap     Infil   Surface    Drain    Initial     Final  Continuity
                                        Inflow      Loss      Loss   Outflow   Outflow   Storage   Storage       Error
  Subcatchment      LID Control             mm        mm        mm        mm        mm        mm        mm           %
  --------------------------------------------------------------------------------------------------------------------
  sub60             GreenRoof            42.23      0.00      0.00      0.00      0.00      7.05     49.30       -0.03
  sub61             GreenRoof            42.23      0.00      0.00      0.00      0.00      7.05     49.30       -0.03
  sub62             GreenRoof            42.23      0.00      0.00      0.00      0.00      7.05     49.30       -0.03
  sub63             GreenRoof            42.23      0.00      0.00      0.00      0.00      7.05     49.30       -0.03
  sub64             GreenRoof            42.23      0.00      0.00      0.00      0.00      7.05     49.30       -0.03
  sub65             GreenRoof            42.23      0.00      0.00      0.00      0.00      7.05     49.30       -0.03
  sub66             GreenRoof            42.23      0.00      0.00      0.00      0.00      7.05     49.30       -0.03
  sub67             GreenRoof            42.23      0.00      0.00      0.00      0.00      7.05     49.30       -0.03
  sub68             GreenRoof            42.23      0.00      0.00      0.00      0.00      7.05     49.30       -0.03
  sub69             GreenRoof            42.23      0.00      0.00      0.00      0.00      7.05     49.30       -0.03
  sub70             GreenRoof            42.23      0.00      0.00      0.00      0.00      7.05     49.30       -0.03
  sub71             GreenRoof            42.23      0.00      0.00      0.00      0.00      7.05     49.30       -0.03
  sub72             GreenRoof            42.23      0.00      0.00      0.00      0.00      7.05     49.30       -0.03
  
  ******************
  Node Depth Summary
  ******************
  
  ---------------------------------------------------------------------------------
                                 Average  Maximum  Maximum  Time of Max    Reported
                                   Depth    Depth      HGL   Occurrence   Max Depth
  Node                 Type       Meters   Meters   Meters  days hr:min      Meters
  ---------------------------------------------------------------------------------
  WS02001211           JUNCTION     0.76     0.78     5.62     0  02:59        0.78
  WS02001212           JUNCTION     0.46     0.49     5.55     0  02:58        0.49
  WS02001213           JUNCTION     0.68     0.73     5.49     0  02:58        0.73
  WS02003059           JUNCTION     0.73     0.78     5.47     0  02:57        0.78
  WS02003060           JUNCTION     0.38     0.47     5.41     0  02:57        0.47
  WS02003066           JUNCTION     0.16     0.27     5.82     0  02:56        0.27
  WS02003067           JUNCTION     0.43     0.65     5.97     0  02:56        0.65
  WS02003069           JUNCTION     0.42     0.54     5.12     0  02:57        0.54
  WS02003072           JUNCTION     0.49     0.60     4.97     0  02:58        0.60
  WS02003073           JUNCTION     0.29     0.37     4.43     0  02:58        0.37
  WS02004138           JUNCTION     0.19     0.20     7.45     0  00:00        0.19
  WS02004139           JUNCTION     0.71     0.73     5.64     0  03:00        0.73
  WS02004401           JUNCTION     0.51     0.75     6.75     0  03:01        0.75
  WS02004402           JUNCTION     0.55     0.78     6.74     0  03:01        0.78
  WS02004403           JUNCTION     0.57     0.80     6.73     0  03:02        0.80
  WS02004404           JUNCTION     0.65     0.88     6.73     0  03:02        0.88
  WS02004405           JUNCTION     0.64     0.88     6.73     0  03:02        0.88
  WS02004406           JUNCTION     0.66     0.88     6.71     0  03:02        0.88
  WS02004407           JUNCTION     0.14     0.26     6.57     0  03:02        0.26
  WS02004409           JUNCTION     0.30     0.58     6.35     0  03:02        0.58
  WS02004410           JUNCTION     0.33     0.59     6.31     0  03:02        0.59
  WS02004411           JUNCTION     0.35     0.61     6.29     0  02:55        0.61
  WS02004412           JUNCTION     0.38     0.62     6.26     0  02:55        0.62
  WS02004413           JUNCTION     0.54     0.79     6.26     0  02:55        0.79
  WS02006109           JUNCTION     0.57     0.84     7.45     0  02:07        0.83
  WS02006110           JUNCTION     0.58     0.82     7.41     0  03:00        0.82
  WS02006111           JUNCTION     0.14     0.25     6.96     0  03:00        0.25
  WS02006112           JUNCTION     0.66     0.93     6.82     0  03:00        0.93
  WS02006113           JUNCTION     0.22     0.39     7.29     0  03:21        0.39
  WS02006115           JUNCTION     0.39     0.65     6.78     0  03:00        0.65
  WS02006116           JUNCTION     0.48     0.73     6.77     0  03:00        0.73
  WS02006228           JUNCTION     0.55     0.85     7.50     0  02:08        0.85
  WS02006229           JUNCTION     0.52     0.83     7.52     0  02:07        0.83
  WS02006230           JUNCTION     0.50     0.86     7.60     0  02:04        0.86
  WS02006231           JUNCTION     0.31     0.60     7.72     0  02:04        0.60
  WS02006232           JUNCTION     0.43     0.75     7.79     0  02:04        0.75
  WS02006234           JUNCTION     0.35     0.71     7.87     0  02:08        0.71
  WS02006235           JUNCTION     0.38     0.76     7.93     0  02:07        0.76
  WS02006238           JUNCTION     0.41     0.81     7.96     0  02:01        0.80
  WS02006239           JUNCTION     0.38     0.81     8.02     0  02:01        0.80
  WS02006240           JUNCTION     0.36     0.79     8.08     0  02:08        0.79
  WS02006242           JUNCTION     0.43     0.91     8.17     0  02:07        0.90
  WS02006243           JUNCTION     0.37     0.85     8.27     0  02:08        0.84
  WS02006245           JUNCTION     0.38     0.86     8.34     0  02:03        0.85
  WS02006247           JUNCTION     0.40     0.89     8.39     0  02:07        0.89
  WS02006248           JUNCTION     0.37     0.86     8.45     0  02:09        0.86
  WS02006249           JUNCTION     0.41     0.89     8.49     0  02:05        0.89
  WS02006251           JUNCTION     0.41     0.91     8.58     0  02:08        0.91
  WS02006252           JUNCTION     0.30     1.50     9.74     0  00:00        0.60
  WS02006256           JUNCTION     0.61     2.35     9.28     0  00:00        2.35
  WSF200               JUNCTION     0.13     0.25     5.48     0  02:56        0.25
  YS02001580           JUNCTION     0.05     1.05     9.59     0  01:59        0.77
  YS02001583           JUNCTION     0.08     1.14     9.64     0  01:59        0.81
  YS02001586           JUNCTION     0.13     1.13     9.30     0  01:59        1.13
  YS02001590           JUNCTION     0.20     1.40     9.26     0  01:59        1.37
  YS02001593           JUNCTION     0.15     1.39     9.26     0  01:59        1.29
  YS02001596           JUNCTION     0.20     1.73     9.15     0  01:59        1.69
  YS02001600           JUNCTION     0.39     1.87     9.00     0  01:59        1.86
  YS02001601           JUNCTION     0.65     2.06     8.90     0  01:59        2.06
  YS02001602           JUNCTION     0.57     1.87     8.77     0  01:59        1.87
  YS02001605           JUNCTION     0.54     1.78     8.68     0  01:59        1.78
  YS02001607           JUNCTION     0.55     1.65     8.50     0  02:05        1.65
  YS02001610           JUNCTION     0.60     1.68     8.48     0  01:59        1.68
  YS02001613           JUNCTION     0.56     1.65     8.49     0  02:01        1.64
  YS02001616           JUNCTION     0.49     1.58     8.50     0  02:00        1.58
  YS02001619           JUNCTION     0.47     1.58     8.50     0  02:01        1.57
  YS02001622           JUNCTION     0.48     1.62     8.52     0  01:59        1.55
  YS02001625           JUNCTION     0.75     1.78     8.38     0  01:59        1.78
  YS02001629           JUNCTION     0.77     1.85     8.40     0  01:59        1.85
  YS02001633           JUNCTION     0.85     1.98     8.44     0  02:03        1.97
  YS02001641           JUNCTION     0.84     1.90     8.34     0  02:05        1.90
  YS02001644           JUNCTION     0.84     1.85     8.29     0  02:05        1.85
  YS02001647           JUNCTION     0.66     1.58     8.19     0  02:01        1.56
  YS02001649           JUNCTION     0.83     1.64     8.03     0  02:05        1.64
  YS02001652           JUNCTION     0.65     1.42     8.02     0  02:03        1.41
  YS02001655           JUNCTION     0.45     1.31     8.16     0  02:03        1.08
  YS02001658           JUNCTION     0.21     0.87     8.01     0  02:05        0.80
  YS02001661           JUNCTION     0.11     0.56     7.97     0  02:04        0.51
  YS02001664           JUNCTION     0.04     0.26     8.18     0  02:02        0.26
  YS02001745           JUNCTION     0.03     0.24     7.75     0  02:04        0.23
  YS02001748           JUNCTION     0.25     0.74     7.82     0  02:04        0.74
  YS02001751           JUNCTION     0.41     0.97     7.85     0  02:03        0.85
  YS02001754           JUNCTION     0.63     1.19     7.80     0  02:03        1.12
  YS02001757           JUNCTION     0.93     1.56     7.82     0  02:05        1.56
  YS02001759           JUNCTION     0.84     1.52     7.89     0  02:03        1.50
  YS02001762           JUNCTION     0.81     1.55     7.95     0  02:03        1.47
  YS02001765           JUNCTION     0.77     1.54     7.99     0  02:03        1.39
  YS02001767           JUNCTION     0.74     1.56     8.05     0  02:02        1.25
  YS02001770           JUNCTION     0.74     1.95     8.44     0  02:02        1.27
  YS02001774           JUNCTION     0.80     2.04     8.46     0  02:02        1.34
  YS02001779           JUNCTION     0.57     1.68     8.37     0  02:02        1.09
  YS02001783           JUNCTION     0.46     1.52     7.66     0  02:02        1.52
  YS02001784           JUNCTION     0.51     1.60     7.66     0  02:01        1.45
  YS02001786           JUNCTION     0.53     1.65     7.68     0  02:01        1.28
  YS02001788           JUNCTION     0.55     1.87     7.85     0  02:01        1.14
  YS02001790           JUNCTION     0.81     1.76     7.40     0  02:01        1.30
  YS02001791           JUNCTION     0.93     1.60     7.07     0  02:01        1.27
  YS02001793           JUNCTION     1.42     1.97     6.80     0  02:01        1.81
  YS02001882           JUNCTION     0.23     1.69     8.41     0  02:01        1.60
  YS02001884           JUNCTION     0.32     1.78     8.40     0  02:01        1.69
  YS02001887           JUNCTION     0.40     1.83     8.37     0  02:01        1.76
  YS02001890           JUNCTION     0.43     1.81     8.32     0  02:01        1.81
  YS02001895           JUNCTION     0.21     1.57     8.32     0  02:01        1.56
  YS02001898           JUNCTION     0.21     1.57     8.31     0  02:01        1.56
  YS02001901           JUNCTION     0.33     1.68     8.29     0  02:01        1.67
  YS02001904           JUNCTION     0.31     1.66     8.29     0  02:01        1.66
  YS02001907           JUNCTION     0.62     1.96     8.25     0  02:01        1.96
  YS02001910           JUNCTION     0.42     2.10     8.61     0  02:01        2.10
  YS02001915           JUNCTION     0.23     1.94     8.65     0  02:02        1.87
  YS02001918           JUNCTION     0.11     1.81     8.88     0  02:02        1.38
  YS02001920           JUNCTION     0.19     2.14     9.15     0  02:02        1.51
  YS02001923           JUNCTION     0.08     2.03     9.29     0  02:02        1.34
  YS02001926           JUNCTION     0.11     1.90     9.35     0  02:02        1.19
  YS02001929           JUNCTION     0.05     1.78     9.47     0  02:02        1.00
  YS02006553           JUNCTION     0.63     1.98     8.27     0  02:02        1.98
  YS02006556           JUNCTION     0.60     1.97     8.28     0  02:02        1.97
  YS02006558           JUNCTION     0.64     2.01     8.28     0  02:02        2.01
  YS02006561           JUNCTION     0.12     1.15     7.81     0  02:01        1.14
  YS02163301           JUNCTION     0.80     1.90     8.42     0  02:05        1.90
  YS02163601           JUNCTION     0.89     1.99     8.39     0  02:05        1.99
  YS02164001           JUNCTION     0.83     1.91     8.37     0  02:05        1.91
  CC-1                 OUTFALL      0.00     0.00     0.00     0  00:00        0.00
  CC-2                 OUTFALL      0.00     0.00     0.00     0  00:00        0.00
  JK-1                 OUTFALL      0.00     0.00     0.00     0  00:00        0.00
  JK-2                 OUTFALL      0.00     0.00     0.00     0  00:00        0.00
  WSC                  OUTFALL      0.29     0.37     1.04     0  02:59        0.37
  CC-storage           STORAGE      1.57     1.91     7.41     0  02:55        1.91
  JK-storage           STORAGE      4.76     5.80     6.60     0  02:01        5.80
  XR-storage           STORAGE      0.23     5.00     3.00     0  00:00        4.91
  
  
  *******************
  Node Inflow Summary
  *******************
  
  -------------------------------------------------------------------------------------------------
                                  Maximum  Maximum                  Lateral       Total        Flow
                                  Lateral    Total  Time of Max      Inflow      Inflow     Balance
                                   Inflow   Inflow   Occurrence      Volume      Volume       Error
  Node                 Type           LPS      LPS  days hr:min    10^6 ltr    10^6 ltr     Percent
  -------------------------------------------------------------------------------------------------
  WS02001211           JUNCTION      7.35   389.12     0  03:36       0.212        11.1       0.350
  WS02001212           JUNCTION      0.00   390.85     0  03:36           0        11.1       0.209
  WS02001213           JUNCTION      0.00   392.60     0  03:36           0        11.1       0.241
  WS02003059           JUNCTION      0.00   395.63     0  03:35           0          11       0.333
  WS02003060           JUNCTION     16.53   816.13     0  02:56       0.476        14.6       0.160
  WS02003066           JUNCTION      0.00   411.93     0  02:56           0        3.15       0.067
  WS02003067           JUNCTION      0.00   411.92     0  02:56           0        3.16       0.165
  WS02003069           JUNCTION      0.32   816.40     0  02:57     0.00922        14.6       0.172
  WS02003072           JUNCTION      0.00   816.38     0  02:57           0        14.6       0.220
  WS02003073           JUNCTION      1.82   818.19     0  02:58      0.0524        14.6       0.242
  WS02004138           JUNCTION      0.00   380.00     0  00:00           0        10.9       0.059
  WS02004139           JUNCTION      0.32   395.52     0  00:00     0.00924        10.9       0.409
  WS02004401           JUNCTION      0.00   412.49     0  03:00           0        3.29       0.392
  WS02004402           JUNCTION      0.00   412.45     0  03:01           0        3.27       0.389
  WS02004403           JUNCTION      0.00   412.37     0  03:01           0        3.26       0.374
  WS02004404           JUNCTION      0.16   412.47     0  03:01     0.00467        3.25       0.302
  WS02004405           JUNCTION      0.04   412.56     0  03:01      0.0011        3.24       0.451
  WS02004406           JUNCTION      0.00   412.62     0  03:01           0        3.23       0.752
  WS02004407           JUNCTION      0.00   412.24     0  03:02           0        3.21       0.082
  WS02004409           JUNCTION      0.00   412.11     0  03:02           0         3.2       0.170
  WS02004410           JUNCTION      0.00   412.05     0  03:02           0         3.2       0.222
  WS02004411           JUNCTION      0.00   412.00     0  03:03           0        3.19       0.256
  WS02004412           JUNCTION      0.00   411.99     0  03:03           0        3.18       0.318
  WS02004413           JUNCTION      0.00   412.03     0  03:03           0        3.17       0.533
  WS02006109           JUNCTION      1.23   412.28     0  02:07      0.0354        3.35       0.334
  WS02006110           JUNCTION      0.00   411.77     0  02:09           0        3.34       0.340
  WS02006111           JUNCTION      0.00   423.85     0  03:21           0        3.33       0.067
  WS02006112           JUNCTION      0.00   414.51     0  03:00           0        3.32       0.642
  WS02006113           JUNCTION      0.00   412.06     0  03:00           0        3.33       0.135
  WS02006115           JUNCTION      0.00   412.96     0  03:00           0         3.3       0.298
  WS02006116           JUNCTION      0.00   412.50     0  03:00           0        3.29       0.231
  WS02006228           JUNCTION      0.00   412.19     0  02:08           0        3.32       0.164
  WS02006229           JUNCTION      0.00   410.71     0  02:07           0        3.33       0.244
  WS02006230           JUNCTION     10.28   410.61     0  02:09       0.296        3.34       0.246
  WS02006231           JUNCTION      0.00   400.49     0  02:09           0        3.05       0.038
  WS02006232           JUNCTION      0.00   400.45     0  02:09           0        3.06       0.547
  WS02006234           JUNCTION      0.00   401.83     0  02:08           0        3.06      -0.115
  WS02006235           JUNCTION      0.00   401.85     0  02:12           0        3.08       0.468
  WS02006238           JUNCTION      0.00   402.09     0  02:08           0        3.06      -0.333
  WS02006239           JUNCTION      0.00   401.17     0  02:12           0        3.05      -0.019
  WS02006240           JUNCTION      0.00   401.01     0  02:05           0        3.05       0.196
  WS02006242           JUNCTION      0.00   400.74     0  02:08           0        3.06       0.475
  WS02006243           JUNCTION      0.00   400.97     0  02:02           0        3.07       0.389
  WS02006245           JUNCTION      0.00   402.53     0  02:01           0         3.1       0.965
  WS02006247           JUNCTION      0.00   401.19     0  02:08           0        3.11       0.346
  WS02006248           JUNCTION      0.00   401.05     0  02:01           0        3.13       0.351
  WS02006249           JUNCTION      0.00   467.45     0  07:57           0        3.16       1.035
  WS02006251           JUNCTION      0.08   403.61     0  07:56     0.00222        3.17       0.254
  WS02006252           JUNCTION      0.00   400.00     0  00:00           0        3.16      -0.080
  WS02006256           JUNCTION      0.00   300.00     0  00:00           0      0.0243      -5.645
  WSF200               JUNCTION      0.00   411.93     0  02:56           0        3.15       0.048
  YS02001580           JUNCTION      0.00   147.14     0  01:59           0     0.00429      -0.224
  YS02001583           JUNCTION      0.00   251.85     0  01:59           0      0.0144     -11.439
  YS02001586           JUNCTION    383.20   383.39     0  02:04       0.864       0.876       0.180
  YS02001590           JUNCTION      0.00   317.95     0  02:05           0       0.835      -0.070
  YS02001593           JUNCTION      0.00   318.15     0  02:08           0       0.835       0.000
  YS02001596           JUNCTION      0.00   317.98     0  02:08           0       0.835       0.047
  YS02001600           JUNCTION      0.00   317.99     0  02:06           0       0.837       0.003
  YS02001601           JUNCTION    695.76  1013.02     0  02:03        1.19        2.03       0.275
  YS02001602           JUNCTION      0.00   562.94     0  01:59           0        1.59       0.343
  YS02001605           JUNCTION      0.00   562.47     0  01:59           0        1.55       0.525
  YS02001607           JUNCTION      0.00   561.96     0  01:59           0        1.55       0.676
  YS02001610           JUNCTION      0.00   542.83     0  01:59           0        1.55       0.654
  YS02001613           JUNCTION      0.00   550.32     0  01:59           0        1.47       0.655
  YS02001616           JUNCTION      0.00   556.58     0  01:59           0        1.47       0.491
  YS02001619           JUNCTION    661.66   965.27     0  01:59        1.33         2.8       0.228
  YS02001622           JUNCTION      0.00   960.02     0  01:59           0        2.79       0.371
  YS02001625           JUNCTION      0.00   942.51     0  01:59           0        2.79       1.125
  YS02001629           JUNCTION      0.00   931.79     0  02:01           0        2.67       0.341
  YS02001633           JUNCTION    533.58  1433.90     0  02:01       0.889        3.53       0.762
  YS02001641           JUNCTION      0.00  1433.29     0  02:01           0        3.47       0.518
  YS02001644           JUNCTION    457.79  1871.48     0  02:01       0.727        4.17       0.530
  YS02001647           JUNCTION      0.00  1872.42     0  02:01           0        4.15       0.480
  YS02001649           JUNCTION      0.00  2177.61     0  02:01           0         4.8       0.683
  YS02001652           JUNCTION      0.00   517.59     0  02:05           0       0.695       2.098
  YS02001655           JUNCTION      0.15   540.98     0  02:06     0.00443         0.7       1.448
  YS02001658           JUNCTION      0.00   602.07     0  02:06           0       0.692       0.234
  YS02001661           JUNCTION      0.00   462.09     0  02:02           0       0.685      -0.001
  YS02001664           JUNCTION    462.46   462.46     0  02:02       0.685       0.685      -0.007
  YS02001745           JUNCTION    290.87   290.87     0  02:02       0.399       0.399       0.407
  YS02001748           JUNCTION      0.04   320.60     0  02:03      0.0013       0.408      -0.004
  YS02001751           JUNCTION      0.01   409.19     0  02:04    0.000317       0.417       2.271
  YS02001754           JUNCTION      0.26   342.07     0  02:04     0.00749       0.419       3.558
  YS02001757           JUNCTION      0.00  3073.64     0  02:04           0        6.49       1.470
  YS02001759           JUNCTION    420.97  1097.81     0  02:02       0.581        1.36       1.561
  YS02001762           JUNCTION      0.00   674.69     0  02:02           0       0.798       2.378
  YS02001765           JUNCTION      0.00   660.32     0  02:02           0       0.814       2.611
  YS02001767           JUNCTION      0.54   647.74     0  02:02      0.0154       0.839       3.564
  YS02001770           JUNCTION    576.04   634.28     0  02:02       0.863       0.896       2.831
  YS02001774           JUNCTION      0.00   337.07     0  02:02           0      0.0731      40.343
  YS02001779           JUNCTION      0.01   344.30     0  02:02    0.000144       0.027      48.631
  YS02001783           JUNCTION      0.00  1088.94     0  02:01           0        2.44       0.285
  YS02001784           JUNCTION      1.06  1089.03     0  02:01      0.0305        2.46       0.436
  YS02001786           JUNCTION      0.06  1088.17     0  02:01     0.00162        2.46       0.547
  YS02001788           JUNCTION      0.07  1051.61     0  02:01     0.00204        2.44       0.554
  YS02001790           JUNCTION      0.15   969.93     0  02:03     0.00446        2.44       0.696
  YS02001791           JUNCTION      0.00   970.53     0  02:02           0        2.42       0.585
  YS02001793           JUNCTION      0.00   971.03     0  02:02           0         2.4       0.644
  YS02001882           JUNCTION      0.00    66.74     0  02:00           0      0.0127       5.277
  YS02001884           JUNCTION      0.00   117.72     0  02:00           0      0.0493       5.357
  YS02001887           JUNCTION    456.41   490.47     0  02:01       0.611       0.645       0.680
  YS02001890           JUNCTION      0.00   507.02     0  02:01           0       0.604       0.806
  YS02001895           JUNCTION      0.00   520.70     0  02:01           0       0.597       0.232
  YS02001898           JUNCTION      0.00   532.94     0  02:01           0       0.596      -0.001
  YS02001901           JUNCTION      0.00   547.96     0  02:01           0       0.599       0.544
  YS02001904           JUNCTION      0.00   551.42     0  02:01           0       0.603       0.423
  YS02001907           JUNCTION      0.00  1329.69     0  02:03           0        1.84       0.945
  YS02001910           JUNCTION      0.00   913.12     0  02:03           0        1.24       0.563
  YS02001915           JUNCTION    467.56   911.88     0  02:03       0.745        1.29       0.105
  YS02001918           JUNCTION      0.00   502.11     0  02:01           0        0.58      -0.014
  YS02001920           JUNCTION      2.87   449.82     0  02:02      0.0827       0.559       0.095
  YS02001923           JUNCTION      0.04   535.29     0  02:01     0.00109        0.46      -0.289
  YS02001926           JUNCTION      0.05   700.32     0  02:02      0.0015       0.438      -0.185
  YS02001929           JUNCTION    237.46   605.44     0  02:02       0.419       0.424      -0.090
  YS02006553           JUNCTION      0.00   672.78     0  02:12           0        1.64       0.706
  YS02006556           JUNCTION      0.00   674.03     0  02:12           0        1.65       0.471
  YS02006558           JUNCTION    574.66  1148.64     0  02:01       0.844        2.47       0.140
  YS02006561           JUNCTION      0.00  1158.60     0  02:01           0        2.44      -0.009
  YS02163301           JUNCTION      0.00   932.59     0  02:01           0        2.66       0.700
  YS02163601           JUNCTION      0.11  1434.36     0  02:01     0.00317         3.5       0.758
  YS02164001           JUNCTION      0.00  1433.36     0  02:01           0        3.48       0.472
  CC-1                 OUTFALL       0.00   683.00     0  00:00           0       0.208       0.000
  CC-2                 OUTFALL       0.00   683.00     0  00:00           0       0.208       0.000
  JK-1                 OUTFALL       0.00  1000.00     0  00:00           0      0.0791       0.000
  JK-2                 OUTFALL       0.00  1000.00     0  00:00           0      0.0791       0.000
  WSC                  OUTFALL       0.00   818.18     0  02:59           0        14.6       0.000
  CC-storage           STORAGE       0.00  3077.67     0  02:04           0        8.56       0.325
  JK-storage           STORAGE       0.00   970.93     0  02:02           0        2.54       0.654
  XR-storage           STORAGE     200.00   200.00     0  00:00        5.76        6.36     -41.886
  
  
  **********************
  Node Surcharge Summary
  **********************
  
  Surcharging occurs when water rises above the top of the highest conduit.
  ---------------------------------------------------------------------
                                               Max. Height   Min. Depth
                                   Hours       Above Crown    Below Rim
  Node                 Type      Surcharged         Meters       Meters
  ---------------------------------------------------------------------
  WS02006109           JUNCTION        1.52          0.016        1.804
  WS02006228           JUNCTION        1.51          0.020        2.180
  WS02006229           JUNCTION        1.53          0.028        2.422
  WS02006232           JUNCTION        1.58          0.050        1.430
  WS02006235           JUNCTION        1.53          0.055        1.235
  WS02006238           JUNCTION        1.55          0.092        1.338
  WS02006239           JUNCTION        1.53          0.068        1.222
  WS02006240           JUNCTION        1.53          0.080        1.310
  WS02006242           JUNCTION        1.61          0.176        0.644
  WS02006243           JUNCTION        1.55          0.135        0.635
  WS02006245           JUNCTION        1.55          0.147        0.703
  WS02006247           JUNCTION        1.57          0.180        0.580
  WS02006248           JUNCTION        1.55          0.139        0.241
  WS02006249           JUNCTION        1.56          0.195        0.195
  WS02006252           JUNCTION        1.99          1.100        0.000
  WS02006256           JUNCTION        3.73          2.050        0.000
  YS02001580           JUNCTION        0.27          0.450        0.000
  YS02001583           JUNCTION        0.27          0.500        0.000
  YS02001586           JUNCTION        0.40          0.510        0.000
  YS02001590           JUNCTION        0.46          0.750        0.000
  YS02001593           JUNCTION        0.46          0.775        0.065
  YS02001596           JUNCTION        0.55          0.998        0.072
  YS02001600           JUNCTION        0.69          1.190        0.000
  YS02001601           JUNCTION        1.25          1.440        0.000
  YS02001602           JUNCTION        1.11          1.270        0.000
  YS02001605           JUNCTION        1.05          1.180        0.000
  YS02001607           JUNCTION        0.45          0.648        0.032
  YS02001610           JUNCTION        0.48          0.680        0.000
  YS02001613           JUNCTION        0.44          0.651        0.049
  YS02001616           JUNCTION        0.40          0.584        0.026
  YS02001619           JUNCTION        0.39          0.576        0.034
  YS02001622           JUNCTION        0.39          0.620        0.000
  YS02001625           JUNCTION        0.60          0.780        0.000
  YS02001629           JUNCTION        0.34          0.470        0.000
  YS02001633           JUNCTION        0.83          0.962        0.098
  YS02001641           JUNCTION        1.02          0.901        0.199
  YS02001644           JUNCTION        1.03          0.854        0.066
  YS02001647           JUNCTION        0.29          0.581        0.319
  YS02001649           JUNCTION        2.97          0.636        0.414
  YS02001652           JUNCTION        0.19          0.394        0.736
  YS02001655           JUNCTION        0.05          0.309        0.891
  YS02001754           JUNCTION        0.06          0.142        1.008
  YS02001757           JUNCTION        5.98          0.561        0.649
  YS02001759           JUNCTION        4.72          0.523        0.687
  YS02001762           JUNCTION        1.09          0.546        0.604
  YS02001765           JUNCTION        0.27          0.543        0.557
  YS02001767           JUNCTION        0.22          0.560        0.470
  YS02001770           JUNCTION        0.20          0.920        0.000
  YS02001774           JUNCTION        0.92          1.038        0.012
  YS02001779           JUNCTION        0.07          0.680        0.000
  YS02001783           JUNCTION        0.41          0.721        0.879
  YS02001784           JUNCTION        0.41          0.797        0.693
  YS02001786           JUNCTION        0.40          0.850        0.580
  YS02001788           JUNCTION        0.39          1.069        0.411
  YS02001790           JUNCTION        5.98          0.955        0.202
  YS02001791           JUNCTION        5.98          0.795        1.125
  YS02001793           JUNCTION        6.00          0.972        1.628
  YS02001882           JUNCTION        0.28          0.695        0.135
  YS02001884           JUNCTION        0.29          0.719        0.151
  YS02001887           JUNCTION        0.32          0.782        0.168
  YS02001890           JUNCTION        0.33          0.760        0.000
  YS02001895           JUNCTION        0.27          0.569        0.181
  YS02001898           JUNCTION        0.27          0.544        0.196
  YS02001901           JUNCTION        0.31          0.683        0.187
  YS02001904           JUNCTION        0.30          0.658        0.192
  YS02001907           JUNCTION        0.47          0.950        0.000
  YS02001910           JUNCTION        0.35          1.100        0.000
  YS02001915           JUNCTION        0.28          0.937        0.063
  YS02001918           JUNCTION        0.20          0.810        0.000
  YS02001920           JUNCTION        0.21          1.140        0.000
  YS02001923           JUNCTION        0.01          0.820        0.000
  YS02001926           JUNCTION        0.01          0.900        0.000
  YS02001929           JUNCTION        0.01          0.780        0.000
  YS02006553           JUNCTION        0.48          0.983        0.207
  YS02006556           JUNCTION        0.41          0.930        0.420
  YS02006558           JUNCTION        0.40          0.912        0.488
  YS02006561           JUNCTION        0.22          0.347        0.803
  YS02163301           JUNCTION        0.68          0.904        0.126
  YS02163601           JUNCTION        1.36          0.993        0.087
  YS02164001           JUNCTION        0.86          0.910        0.190
  
  
  *********************
  Node Flooding Summary
  *********************
  
  Flooding refers to all water that overflows a node, whether it ponds or not.
  --------------------------------------------------------------------------
                                                             Total   Maximum
                                 Maximum   Time of Max       Flood    Ponded
                        Hours       Rate    Occurrence      Volume     Depth
  Node                 Flooded       LPS   days hr:min    10^6 ltr    Meters
  --------------------------------------------------------------------------
  WS02006252              0.01    245.63      0  00:00       0.000     0.000
  WS02006256              0.02    293.19      0  00:00       0.005     0.000
  YS02001580              0.01     69.79      0  01:59       0.000     0.000
  YS02001583              0.01    141.00      0  01:59       0.000     0.000
  YS02001586              0.18    140.06      0  01:59       0.029     0.000
  YS02001590              0.01      7.62      0  01:59       0.000     0.000
  YS02001600              0.01      8.88      0  01:59       0.000     0.000
  YS02001601              0.34    615.18      0  02:03       0.436     0.000
  YS02001602              0.24     62.01      0  02:09       0.047     0.000
  YS02001605              0.01      4.67      0  01:59       0.000     0.000
  YS02001610              0.19    177.28      0  02:05       0.079     0.000
  YS02001622              0.01    195.92      0  01:59       0.000     0.000
  YS02001625              0.15    352.43      0  02:05       0.099     0.000
  YS02001629              0.01    225.82      0  01:59       0.001     0.000
  YS02001770              0.01     85.13      0  02:02       0.000     0.000
  YS02001779              0.01    247.33      0  02:02       0.002     0.000
  YS02001890              0.01     73.39      0  02:02       0.002     0.000
  YS02001907              0.14    910.60      0  02:03       0.191     0.000
  YS02001910              0.01     67.05      0  02:01       0.000     0.000
  YS02001918              0.01    242.33      0  02:02       0.003     0.000
  YS02001920              0.01     54.95      0  02:02       0.000     0.000
  YS02001923              0.01    322.23      0  02:02       0.001     0.000
  YS02001926              0.01     82.19      0  02:02       0.000     0.000
  YS02001929              0.01    161.45      0  02:02       0.001     0.000
  JK-storage              5.98    970.84      0  02:03       2.050     0.000
  
  
  **********************
  Storage Volume Summary
  **********************
  
  ------------------------------------------------------------------------------------------------
                         Average    Avg   Evap  Exfil     Maximum    Max    Time of Max    Maximum
                          Volume   Pcnt   Pcnt   Pcnt      Volume   Pcnt     Occurrence    Outflow
  Storage Unit           1000 m³   Full   Loss   Loss     1000 m³   Full    days hr:min        LPS
  ------------------------------------------------------------------------------------------------
  CC-storage               4.370   68.2    0.0    0.0       5.323   83.0       0  02:55    1783.53
  JK-storage               0.239   82.0    0.0    0.0       0.291  100.0       0  02:01    2300.00
  XR-storage               0.028    1.9    0.0    0.0       0.600   41.7       0  00:00     380.00
  
  
  ***********************
  Outfall Loading Summary
  ***********************
  
  -----------------------------------------------------------
                         Flow       Avg       Max       Total
                         Freq      Flow      Flow      Volume
  Outfall Node           Pcnt       LPS       LPS    10^6 ltr
  -----------------------------------------------------------
  CC-1                   1.02    683.00    683.00       0.208
  CC-2                   1.02    683.00    683.00       0.208
  JK-1                   0.95    347.46   1000.00       0.079
  JK-2                   0.95    347.46   1000.00       0.079
  WSC                   99.94    549.39    818.18      14.557
  -----------------------------------------------------------
  System                20.77   2610.31   3366.35      15.132
  
  
  ********************
  Link Flow Summary
  ********************
  
  -----------------------------------------------------------------------------
                                 Maximum  Time of Max   Maximum    Max/    Max/
                                  |Flow|   Occurrence   |Veloc|    Full    Full
  Link                 Type          LPS  days hr:min     m/sec    Flow   Depth
  -----------------------------------------------------------------------------
  1                    CONDUIT    818.18     0  02:59      3.15    0.28    0.37
  WS02001211WS02001212 CONDUIT    390.85     0  03:36      0.78    0.30    0.64
  WS02001212WS02001213 CONDUIT    392.60     0  03:36      1.32    0.61    0.45
  WS02001213WS02003059 CONDUIT    395.63     0  03:35      0.85    0.65    0.75
  WS02003059WS02003060 CONDUIT    399.94     0  03:35      0.95    0.26    0.63
  WS02003060WS02003069 CONDUIT    816.08     0  02:57      1.80    0.32    0.42
  WS02003066WSF200     CONDUIT    411.93     0  02:56      2.69    0.07    0.19
  WS02003067WS02003066 CONDUIT    411.93     0  02:56      1.04    0.13    0.38
  WS02003069WS02003072 CONDUIT    816.38     0  02:57      1.55    0.39    0.47
  WS02003072WS02003073 CONDUIT    816.37     0  02:58      1.64    1.76    0.45
  WS02004138WS02004139 CONDUIT    395.20     0  00:00      3.65    0.08    0.43
  WS02004139WS02001211 CONDUIT    381.77     0  03:36      0.91    0.48    0.59
  WS02004401WS02004402 CONDUIT    412.45     0  03:01      0.99    0.50    0.77
  WS02004402WS02004403 CONDUIT    412.37     0  03:01      0.99    0.59    0.79
  WS02004403WS02004404 CONDUIT    412.31     0  03:01      0.93    0.30    0.84
  WS02004404WS02004405 CONDUIT    412.53     0  03:01      1.10    4.04    0.88
  WS02004405WS02004406 CONDUIT    412.62     0  03:01      1.03    0.81    0.88
  WS02004406WS02004407 CONDUIT    412.24     0  03:02      0.89    0.18    0.57
  WS02004407WS02004409 CONDUIT    412.11     0  03:02      1.42    0.15    0.42
  WS02004409WS02004410 CONDUIT    412.05     0  03:02      0.92    0.53    0.58
  WS02004410WS02004411 CONDUIT    412.00     0  03:03      0.86    0.56    0.60
  WS02004411WS02004412 CONDUIT    411.99     0  03:03      0.81    0.59    0.61
  WS02004412WS02004413 CONDUIT    412.03     0  03:03      0.70    0.28    0.70
  WS02004413WS02003067 CONDUIT    411.92     0  02:56      0.96    0.18    0.54
  WS02006109WS02006110 CONDUIT    411.77     0  02:09      0.84    0.79    0.94
  WS02006110WS02006113 CONDUIT    412.06     0  03:00      1.03    0.37    0.75
  WS02006111WS02006112 CONDUIT    414.51     0  03:00      1.83    0.20    0.65
  WS02006112WS02006115 CONDUIT    412.96     0  03:00      0.71    0.24    0.78
  WS02006113WS02006111 CONDUIT    423.85     0  03:21      2.25    0.51    0.40
  WS02006115WS02006116 CONDUIT    412.50     0  03:00      0.98    0.53    0.66
  WS02006116WS02004401 CONDUIT    412.49     0  03:00      1.00    0.57    0.74
  WS02006228WS02006109 CONDUIT    411.05     0  02:07      1.06    1.80    1.00
  WS02006229WS02006228 CONDUIT    412.19     0  02:08      1.13    1.37    1.00
  WS02006230WS02006229 CONDUIT    410.71     0  02:07      1.22    9.14    1.00
  WS02006231WS02006230 CONDUIT    400.33     0  02:09      1.37    6.07    0.77
  WS02006232WS02006231 CONDUIT    400.49     0  02:09      1.08    0.84    0.92
  WS02006234WS02006232 CONDUIT    400.45     0  02:09      1.40    0.81    1.00
  WS02006235WS02006234 CONDUIT    401.83     0  02:08      1.29    4.24    0.99
  WS02006238WS02006235 CONDUIT    401.81     0  02:07      1.49    0.90    1.00
  WS02006239WS02006238 CONDUIT    402.09     0  02:08      1.21    1.29    1.00
  WS02006240WS02006239 CONDUIT    401.17     0  02:12      1.31    1.26    1.00
  WS02006242WS02006240 CONDUIT    401.01     0  02:05      1.17    1.59    1.00
  WS02006243WS02006242 CONDUIT    400.74     0  02:08      1.42    0.86    1.00
  WS02006245WS02006243 CONDUIT    400.97     0  02:02      1.45    1.19    1.00
  WS02006247WS02006245 CONDUIT    402.53     0  02:01      1.43    3.19    1.00
  WS02006248WS02006247 CONDUIT    401.19     0  02:08      1.44    0.87    1.00
  WS02006249WS02006248 CONDUIT    401.05     0  02:01      1.40    2.20    1.00
  WS02006251WS02006249 CONDUIT    467.45     0  07:57      1.99    1.35    1.00
  WS02006252WS02006251 CONDUIT    403.53     0  07:56     24.55    1.48    1.00
  WS02006256WS02006235 CONDUIT    288.91     0  00:00      4.23    3.06    1.00
  WSF200WS02003060     CONDUIT    411.93     0  02:56      1.43    0.09    0.30
  YS02001580YS02001583 CONDUIT    147.14     0  01:59      0.84    0.57    1.00
  YS02001583YS02001586 CONDUIT    196.34     0  01:59      0.82    0.30    1.00
  YS02001586YS02001590 CONDUIT    317.95     0  02:05      1.28    0.56    1.00
  YS02001590YS02001593 CONDUIT    318.15     0  02:08      1.13    2.00    1.00
  YS02001593YS02001596 CONDUIT    317.98     0  02:08      1.64    0.50    1.00
  YS02001596YS02001600 CONDUIT    317.99     0  02:06      1.12    0.62    1.00
  YS02001600YS02001601 CONDUIT    318.31     0  02:05      1.13    0.55    1.00
  YS02001601YS02001602 CONDUIT    562.94     0  01:59      1.99    2.03    1.00
  YS02001602YS02001605 CONDUIT    562.47     0  01:59      1.99   11.90    1.00
  YS02001605YS02001607 CONDUIT    561.96     0  01:59      1.99    3.08    1.00
  YS02001607YS02001610 CONDUIT    542.83     0  01:59      0.69    0.52    1.00
  YS02001610YS02001613 CONDUIT    550.32     0  01:59      0.70    0.63    1.00
  YS02001613YS02001616 CONDUIT    556.58     0  01:59      0.71    0.48    1.00
  YS02001616YS02001619 CONDUIT    498.40     0  01:59      0.66    0.87    1.00
  YS02001619YS02001622 CONDUIT    960.02     0  01:59      1.24    1.41    1.00
  YS02001622YS02001625 CONDUIT    942.51     0  01:59      1.20    0.50    1.00
  YS02001625YS02001629 CONDUIT    931.79     0  02:01      1.19    0.44    1.00
  YS02001629YS02163301 CONDUIT    932.59     0  02:01      1.19    1.15    1.00
  YS02001633YS02163601 CONDUIT   1434.25     0  02:01      1.83    1.51    1.00
  YS02001641YS02001644 CONDUIT   1433.37     0  02:01      1.83    4.63    1.00
  YS02001644YS02001647 CONDUIT   1872.42     0  02:01      2.42    1.10    1.00
  YS02001647YS02001649 CONDUIT   1853.95     0  02:01      2.42    0.98    1.00
  YS02001649YS02001757 CONDUIT   2180.84     0  02:01      2.78    1.32    1.00
  YS02001652YS02001649 CONDUIT    519.06     0  02:05      0.77    0.26    1.00
  YS02001655YS02001652 CONDUIT    517.59     0  02:05      1.40    0.25    1.00
  YS02001658YS02001655 CONDUIT    540.82     0  02:06      2.01    0.23    0.93
  YS02001661YS02001658 CONDUIT    602.07     0  02:06      2.38    0.24    0.62
  YS02001664YS02001661 CONDUIT    462.09     0  02:02      2.24    0.14    0.40
  YS02001745YS02001748 CONDUIT    290.65     0  02:04      2.19    0.11    0.44
  YS02001748YS02001751 CONDUIT    409.18     0  02:04      1.80    0.21    0.80
  YS02001751YS02001754 CONDUIT    341.81     0  02:04      1.51    0.16    0.99
  YS02001754YS02001757 CONDUIT    343.03     0  02:04      0.49    0.14    1.00
  YS02001757CaochengTiaoxuchi CONDUIT   3077.67     0  02:04      3.94    1.33    1.00
  YS02001759YS02001757 CONDUIT   1104.81     0  02:02      1.41    0.79    1.00
  YS02001762YS02001759 CONDUIT    687.12     0  02:02      0.87    0.79    1.00
  YS02001765YS02001762 CONDUIT    674.69     0  02:02      0.86    0.63    1.00
  YS02001767YS02001765 CONDUIT    660.32     0  02:02      0.84    0.83    1.00
  YS02001770YS02001767 CONDUIT    647.20     0  02:02      0.82    2.56    1.00
  YS02001774YS02001770 CONDUIT    337.07     0  02:02      0.43    0.22    1.00
  YS02001779YS02001774 CONDUIT    344.29     0  02:02      0.44    0.17    1.00
  YS02001783YS02001784 CONDUIT   1087.97     0  02:01      2.16    1.50    1.00
  YS02001784YS02001785 CONDUIT   1088.12     0  02:01      2.18    2.53    1.00
  YS02001786YS02001788 CONDUIT   1051.54     0  02:01      2.29    2.03    1.00
  YS02001788YS02001790 CONDUIT    969.78     0  02:03      2.38    0.71    1.00
  YS02001790YS02001791 CONDUIT    970.53     0  02:02      2.88    1.06    1.00
  YS02001791YS02001793 CONDUIT    971.03     0  02:02      5.55    0.42    1.00
  YS02001793JiankangQianchi CONDUIT    970.93     0  02:02      1.54    0.08    1.00
  YS02001882YS02001884 CONDUIT     66.74     0  02:00      0.10    0.08    1.00
  YS02001884YS02001887 CONDUIT    117.72     0  02:00      0.15    0.16    1.00
  YS02001887YS02001890 CONDUIT    507.02     0  02:01      0.65    0.87    1.00
  YS02001890YS02001895 CONDUIT    520.70     0  02:01      0.66    0.24    1.00
  YS02001895YS02001898 CONDUIT    532.94     0  02:01      0.68    0.92    1.00
  YS02001898YS02001901 CONDUIT    547.96     0  02:01      0.70    0.35    1.00
  YS02001901YS02001904 CONDUIT    551.42     0  02:01      0.70    0.86    1.00
  YS02001904YS02001907 CONDUIT    553.47     0  02:01      0.70    0.19    1.00
  YS02001907YS02006553 CONDUIT    672.78     0  02:12      0.75    0.79    1.00
  YS02001910YS02001907 CONDUIT    913.12     0  02:03      1.16    0.51    1.00
  YS02001915YS02001910 CONDUIT    913.12     0  02:03      1.16    0.45    1.00
  YS02001918YS02001915 CONDUIT    471.37     0  02:01      0.65    0.26    1.00
  YS02001920YS02001918 CONDUIT    448.94     0  02:03      0.65    0.43    1.00
  YS02001923YS02001920 CONDUIT    448.96     0  02:02      0.75    0.20    1.00
  YS02001926YS02001923 CONDUIT    498.16     0  02:02      1.01    0.71    1.00
  YS02001929YS02001926 CONDUIT    387.75     0  02:03      1.17    0.18    1.00
  YS02006553YS02006556 CONDUIT    674.03     0  02:12      0.86    0.58    1.00
  YS02006556YS02006558 CONDUIT    676.25     0  02:12      0.86    0.53    1.00
  YS02006558YS02006561 CONDUIT   1158.60     0  02:01      4.10    2.56    1.00
  YS02006561YS02001783 CONDUIT   1088.94     0  02:01      2.28    0.56    1.00
  YS02163301YS02001633 CONDUIT    932.70     0  02:01      1.19    0.88    1.00
  YS02163601YS02164001 CONDUIT   1433.36     0  02:01      1.83    1.27    1.00
  YS02164001YS02001641 CONDUIT   1433.29     0  02:01      1.82    1.96    1.00
  CC-R1                PUMP       683.00     0  00:00              1.00
  CC-R2                PUMP       683.00     0  00:00              1.00
  CC-S1                PUMP       200.00     0  00:00              1.00
  CC-S2                PUMP       200.00     0  00:00              1.00
  JK-R1                PUMP      1000.00     0  00:00              1.00
  JK-R2                PUMP      1000.00     0  00:00              1.00
  JK-S                 PUMP       300.00     0  00:00              1.00
  XR-1                 PUMP        95.00     0  00:00              1.00
  XR-2                 PUMP        95.00     0  00:00              1.00
  XR-3                 PUMP        95.00     0  00:00              1.00
  XR-4                 PUMP        95.00     0  00:00              1.00
  
  
  ***************************
  Flow Classification Summary
  ***************************
  
  -------------------------------------------------------------------------------------
                      Adjusted    ---------- Fraction of Time in Flow Class ---------- 
                       /Actual         Up    Down  Sub   Sup   Up    Down  Norm  Inlet 
  Conduit               Length    Dry  Dry   Dry   Crit  Crit  Crit  Crit  Ltd   Ctrl  
  -------------------------------------------------------------------------------------
  1                       1.00   0.00  0.00  0.00  0.00  1.00  0.00  0.00  0.23  0.00
  WS02001211WS02001212    1.00   0.00  0.00  0.00  1.00  0.00  0.00  0.00  0.00  0.00
  WS02001212WS02001213    1.00   0.00  0.00  0.00  0.41  0.00  0.58  0.00  0.00  0.00
  WS02001213WS02003059    1.00   0.00  0.00  0.00  0.99  0.00  0.00  0.00  0.00  0.00
  WS02003059WS02003060    1.00   0.00  0.00  0.00  1.00  0.00  0.00  0.00  0.00  0.00
  WS02003060WS02003069    1.00   0.00  0.00  0.00  0.99  0.01  0.00  0.00  0.00  0.00
  WS02003066WSF200        1.00   0.02  0.10  0.00  0.00  0.88  0.00  0.00  0.86  0.00
  WS02003067WS02003066    1.00   0.10  0.02  0.00  0.89  0.00  0.00  0.00  0.00  0.00
  WS02003069WS02003072    1.00   0.00  0.00  0.00  0.99  0.01  0.00  0.00  0.00  0.00
  WS02003072WS02003073    1.00   0.00  0.00  0.00  0.00  0.00  0.00  1.00  0.00  0.00
  WS02004138WS02004139    1.00   0.00  0.00  0.00  0.99  0.01  0.00  0.00  1.00  0.00
  WS02004139WS02001211    1.00   0.00  0.00  0.00  1.00  0.00  0.00  0.00  0.00  0.00
  WS02004401WS02004402    1.00   0.02  0.00  0.00  0.98  0.00  0.00  0.00  0.00  0.00
  WS02004402WS02004403    1.00   0.02  0.00  0.00  0.98  0.00  0.00  0.00  0.00  0.00
  WS02004403WS02004404    1.00   0.00  0.03  0.00  0.97  0.00  0.00  0.00  0.00  0.00
  WS02004404WS02004405    1.00   0.00  0.00  0.00  1.00  0.00  0.00  0.00  0.00  0.00
  WS02004405WS02004406    1.00   0.00  0.00  0.00  1.00  0.00  0.00  0.00  0.00  0.00
  WS02004406WS02004407    1.00   0.00  0.05  0.00  0.95  0.00  0.00  0.00  0.00  0.00
  WS02004407WS02004409    1.00   0.05  0.00  0.00  0.94  0.01  0.00  0.00  0.94  0.00
  WS02004409WS02004410    1.00   0.05  0.00  0.00  0.95  0.00  0.00  0.00  0.02  0.00
  WS02004410WS02004411    1.00   0.05  0.00  0.00  0.95  0.00  0.00  0.00  0.00  0.00
  WS02004411WS02004412    1.00   0.05  0.00  0.00  0.95  0.00  0.00  0.00  0.00  0.00
  WS02004412WS02004413    1.00   0.05  0.00  0.00  0.94  0.00  0.00  0.00  0.01  0.00
  WS02004413WS02003067    1.00   0.06  0.04  0.00  0.00  0.00  0.90  0.00  0.00  0.00
  WS02006109WS02006110    1.00   0.00  0.01  0.00  0.98  0.00  0.01  0.00  0.00  0.00
  WS02006110WS02006113    1.00   0.01  0.01  0.00  0.98  0.00  0.00  0.00  0.00  0.00
  WS02006111WS02006112    1.00   0.02  0.00  0.00  0.98  0.00  0.00  0.00  0.98  0.00
  WS02006112WS02006115    1.00   0.02  0.00  0.00  0.97  0.00  0.00  0.00  0.00  0.00
  WS02006113WS02006111    1.00   0.02  0.00  0.00  0.00  0.98  0.00  0.00  0.11  0.00
  WS02006115WS02006116    1.00   0.02  0.00  0.00  0.97  0.00  0.00  0.01  0.00  0.00
  WS02006116WS02004401    1.00   0.02  0.00  0.00  0.98  0.00  0.00  0.00  0.00  0.00
  WS02006228WS02006109    1.00   0.00  0.00  0.00  1.00  0.00  0.00  0.00  0.00  0.00
  WS02006229WS02006228    1.00   0.00  0.00  0.00  0.99  0.00  0.00  0.01  0.00  0.00
  WS02006230WS02006229    1.00   0.00  0.00  0.00  0.99  0.00  0.00  0.01  0.00  0.00
  WS02006231WS02006230    1.00   0.00  0.00  0.00  0.20  0.00  0.79  0.00  0.00  0.00
  WS02006232WS02006231    1.00   0.00  0.00  0.00  0.99  0.00  0.01  0.00  0.00  0.00
  WS02006234WS02006232    1.00   0.00  0.00  0.00  1.00  0.00  0.00  0.00  0.44  0.00
  WS02006235WS02006234    1.00   0.00  0.00  0.00  0.52  0.00  0.48  0.00  0.00  0.00
  WS02006238WS02006235    1.00   0.00  0.00  0.00  1.00  0.00  0.00  0.00  0.00  0.00
  WS02006239WS02006238    1.00   0.00  0.00  0.00  1.00  0.00  0.00  0.00  0.53  0.00
  WS02006240WS02006239    1.00   0.00  0.00  0.00  0.43  0.00  0.00  0.57  0.02  0.00
  WS02006242WS02006240    1.00   0.00  0.00  0.00  0.98  0.00  0.01  0.00  0.00  0.00
  WS02006243WS02006242    1.00   0.00  0.00  0.00  0.98  0.00  0.00  0.01  0.64  0.00
  WS02006245WS02006243    1.00   0.00  0.00  0.00  0.48  0.00  0.00  0.52  0.01  0.00
  WS02006247WS02006245    1.00   0.00  0.00  0.00  0.98  0.00  0.00  0.02  0.00  0.00
  WS02006248WS02006247    1.00   0.00  0.00  0.00  0.99  0.00  0.00  0.01  0.17  0.00
  WS02006249WS02006248    1.00   0.00  0.00  0.00  0.36  0.00  0.64  0.00  0.00  0.00
  WS02006251WS02006249    1.00   0.00  0.00  0.00  1.00  0.00  0.00  0.00  0.66  0.00
  WS02006252WS02006251    1.00   0.00  0.70  0.00  0.00  0.00  0.30  0.00  0.45  0.00
  WS02006256WS02006235    1.00   0.00  0.00  0.00  1.00  0.00  0.00  0.00  0.00  0.00
  WSF200WS02003060        1.00   0.00  0.02  0.00  0.98  0.00  0.00  0.00  0.70  0.00
  YS02001580YS02001583    1.00   0.25  0.60  0.00  0.15  0.00  0.00  0.00  0.70  0.00
  YS02001583YS02001586    1.00   0.51  0.29  0.00  0.20  0.00  0.00  0.00  0.70  0.00
  YS02001586YS02001590    1.00   0.13  0.00  0.00  0.35  0.04  0.00  0.48  0.33  0.00
  YS02001590YS02001593    1.00   0.13  0.01  0.00  0.07  0.00  0.79  0.00  0.00  0.00
  YS02001593YS02001596    1.00   0.14  0.00  0.00  0.09  0.01  0.00  0.77  0.02  0.00
  YS02001596YS02001600    1.00   0.14  0.00  0.00  0.78  0.00  0.00  0.08  0.66  0.00
  YS02001600YS02001601    1.00   0.13  0.01  0.00  0.86  0.00  0.00  0.00  0.06  0.00
  YS02001601YS02001602    1.00   0.13  0.01  0.00  0.86  0.00  0.00  0.00  0.00  0.00
  YS02001602YS02001605    1.00   0.14  0.00  0.00  0.86  0.00  0.00  0.00  0.00  0.00
  YS02001605YS02001607    1.00   0.14  0.00  0.00  0.86  0.00  0.00  0.00  0.00  0.00
  YS02001607YS02001610    1.00   0.13  0.01  0.00  0.86  0.00  0.00  0.00  0.02  0.00
  YS02001610YS02001613    1.00   0.13  0.00  0.00  0.87  0.00  0.00  0.00  0.01  0.00
  YS02001613YS02001616    1.00   0.13  0.00  0.00  0.87  0.00  0.00  0.00  0.01  0.00
  YS02001616YS02001619    1.00   0.13  0.00  0.00  0.87  0.00  0.00  0.00  0.00  0.00
  YS02001619YS02001622    1.00   0.13  0.00  0.00  0.87  0.00  0.00  0.00  0.00  0.00
  YS02001622YS02001625    1.00   0.13  0.00  0.00  0.87  0.00  0.00  0.00  0.06  0.00
  YS02001625YS02001629    1.00   0.13  0.06  0.00  0.76  0.00  0.04  0.00  0.00  0.00
  YS02001629YS02163301    1.00   0.17  0.01  0.00  0.82  0.00  0.00  0.00  0.00  0.00
  YS02001633YS02163601    1.00   0.00  0.01  0.00  0.99  0.00  0.00  0.00  0.16  0.00
  YS02001641YS02001644    1.00   0.00  0.01  0.00  0.99  0.00  0.00  0.00  0.00  0.00
  YS02001644YS02001647    1.00   0.00  0.19  0.00  0.81  0.00  0.00  0.00  0.00  0.00
  YS02001647YS02001649    1.00   0.00  0.19  0.00  0.80  0.01  0.00  0.00  0.02  0.00
  YS02001649YS02001757    1.00   0.00  0.00  0.00  0.98  0.02  0.00  0.00  0.20  0.00
  YS02001652YS02001649    1.00   0.00  0.00  0.00  0.96  0.04  0.00  0.00  0.19  0.00
  YS02001655YS02001652    1.00   0.00  0.00  0.00  0.76  0.00  0.00  0.24  0.00  0.00
  YS02001658YS02001655    1.00   0.00  0.15  0.00  0.75  0.10  0.00  0.00  0.04  0.00
  YS02001661YS02001658    1.00   0.15  0.00  0.00  0.75  0.11  0.00  0.00  0.75  0.00
  YS02001664YS02001661    1.00   0.13  0.00  0.00  0.78  0.10  0.00  0.00  0.86  0.00
  YS02001745YS02001748    1.00   0.00  0.00  0.00  0.74  0.00  0.00  0.25  0.74  0.00
  YS02001748YS02001751    1.00   0.00  0.00  0.00  0.91  0.09  0.00  0.00  0.14  0.00
  YS02001751YS02001754    1.00   0.00  0.00  0.00  0.75  0.00  0.00  0.24  0.00  0.00
  YS02001754YS02001757    1.00   0.00  0.00  0.00  1.00  0.00  0.00  0.00  0.24  0.00
  YS02001757CaochengTiaoxuchi    1.00   0.00  0.00  0.00  0.98  0.02  0.00  0.00  0.23  0.00
  YS02001759YS02001757    1.00   0.00  0.00  0.00  1.00  0.00  0.00  0.00  0.06  0.00
  YS02001762YS02001759    1.00   0.00  0.00  0.00  1.00  0.00  0.00  0.00  0.05  0.00
  YS02001765YS02001762    1.00   0.00  0.00  0.00  1.00  0.00  0.00  0.00  0.18  0.00
  YS02001767YS02001765    1.00   0.00  0.00  0.00  1.00  0.00  0.00  0.00  0.00  0.00
  YS02001770YS02001767    1.00   0.00  0.00  0.00  1.00  0.00  0.00  0.00  0.00  0.00
  YS02001774YS02001770    1.00   0.00  0.14  0.00  0.86  0.00  0.00  0.00  0.04  0.00
  YS02001779YS02001774    1.00   0.00  0.00  0.00  1.00  0.00  0.00  0.00  0.20  0.00
  YS02001783YS02001784    1.00   0.00  0.20  0.00  0.80  0.00  0.00  0.00  0.00  0.00
  YS02001784YS02001785    1.00   0.00  0.00  0.00  1.00  0.00  0.00  0.00  0.19  0.00
  YS02001786YS02001788    1.00   0.00  0.00  0.00  0.96  0.04  0.00  0.00  0.00  0.00
  YS02001788YS02001790    1.00   0.00  0.00  0.00  0.95  0.05  0.00  0.00  0.21  0.00
  YS02001790YS02001791    1.00   0.00  0.00  0.00  0.76  0.24  0.00  0.00  0.03  0.00
  YS02001791YS02001793    1.00   0.00  0.00  0.00  0.75  0.25  0.00  0.00  0.00  0.00
  YS02001793JiankangQianchi    1.00   0.00  0.00  0.00  0.94  0.06  0.00  0.00  0.22  0.00
  YS02001882YS02001884    1.00   0.16  0.01  0.00  0.83  0.00  0.00  0.00  0.00  0.00
  YS02001884YS02001887    1.00   0.06  0.05  0.00  0.89  0.00  0.00  0.00  0.00  0.00
  YS02001887YS02001890    1.00   0.00  0.00  0.00  0.97  0.00  0.03  0.00  0.00  0.00
  YS02001890YS02001895    1.00   0.00  0.18  0.00  0.82  0.00  0.00  0.00  0.00  0.00
  YS02001895YS02001898    1.00   0.18  0.00  0.00  0.80  0.00  0.02  0.00  0.00  0.00
  YS02001898YS02001901    1.00   0.18  0.00  0.00  0.82  0.00  0.00  0.00  0.01  0.00
  YS02001901YS02001904    1.00   0.18  0.00  0.00  0.82  0.00  0.00  0.00  0.00  0.00
  YS02001904YS02001907    1.00   0.00  0.18  0.00  0.82  0.00  0.00  0.00  0.00  0.00
  YS02001907YS02006553    1.00   0.00  0.02  0.00  0.98  0.00  0.00  0.00  0.00  0.00
  YS02001910YS02001907    1.00   0.00  0.00  0.00  0.97  0.00  0.00  0.03  0.12  0.00
  YS02001915YS02001910    1.00   0.00  0.00  0.00  0.96  0.04  0.00  0.00  0.18  0.00
  YS02001918YS02001915    1.00   0.00  0.01  0.00  0.98  0.02  0.00  0.00  0.79  0.00
  YS02001920YS02001918    1.00   0.00  0.01  0.00  0.99  0.00  0.00  0.00  0.00  0.00
  YS02001923YS02001920    1.00   0.00  0.00  0.00  1.00  0.00  0.00  0.00  0.95  0.00
  YS02001926YS02001923    1.00   0.00  0.07  0.00  0.04  0.00  0.89  0.00  0.00  0.00
  YS02001929YS02001926    1.00   0.00  0.13  0.00  0.87  0.00  0.00  0.00  0.84  0.00
  YS02006553YS02006556    1.00   0.01  0.00  0.00  0.99  0.00  0.00  0.00  0.03  0.00
  YS02006556YS02006558    1.00   0.00  0.00  0.00  1.00  0.00  0.00  0.00  0.00  0.00
  YS02006558YS02006561    1.00   0.20  0.00  0.00  0.04  0.76  0.00  0.00  0.18  0.00
  YS02006561YS02001783    1.00   0.20  0.00  0.00  0.75  0.05  0.00  0.00  0.73  0.00
  YS02163301YS02001633    1.00   0.00  0.17  0.00  0.83  0.00  0.00  0.00  0.00  0.00
  YS02163601YS02164001    1.00   0.00  0.08  0.00  0.92  0.00  0.00  0.00  0.00  0.00
  YS02164001YS02001641    1.00   0.01  0.07  0.00  0.92  0.00  0.00  0.00  0.06  0.00
  
  
  *************************
  Conduit Surcharge Summary
  *************************
  
  ----------------------------------------------------------------------------
                                                           Hours        Hours 
                         --------- Hours Full --------   Above Full   Capacity
  Conduit                Both Ends  Upstream  Dnstream   Normal Flow   Limited
  ----------------------------------------------------------------------------
  WS02003072WS02003073        0.01      0.01      0.01      2.68         0.01
  WS02004404WS02004405        0.01      0.01      0.01      2.39         0.01
  WS02006109WS02006110        0.01      0.01      1.57      0.01         0.01
  WS02006110WS02006113        0.01      0.01      1.55      0.01         0.01
  WS02006111WS02006112        0.01      0.01      1.62      0.01         0.01
  WS02006228WS02006109        1.52      1.58      1.52      1.87         1.52
  WS02006229WS02006228        1.50      1.53      1.50      1.67         1.50
  WS02006230WS02006229        1.63      1.65      1.63      2.95         1.63
  WS02006231WS02006230        0.01      0.01      0.01      2.67         0.01
  WS02006232WS02006231        0.01      0.01      1.58      0.01         0.01
  WS02006234WS02006232        1.48      1.48      1.58      0.01         0.01
  WS02006235WS02006234        0.01      0.01      1.53      2.41         0.01
  WS02006238WS02006235        1.53      1.53      1.59      0.01         0.01
  WS02006239WS02006238        1.55      1.58      1.55      1.74         1.55
  WS02006240WS02006239        1.53      1.54      1.53      1.76         1.53
  WS02006242WS02006240        1.53      1.53      1.63      1.86         0.01
  WS02006243WS02006242        1.56      1.56      1.61      0.01         0.01
  WS02006245WS02006243        1.55      1.56      1.55      1.85         1.55
  WS02006247WS02006245        1.55      1.58      1.55      2.33         1.55
  WS02006248WS02006247        1.55      1.55      1.57      0.01         0.01
  WS02006249WS02006248        1.55      1.55      1.56      2.28         0.01
  WS02006251WS02006249        1.56      1.57      1.56      1.95         1.56
  WS02006252WS02006251        1.99      1.99      1.99      1.99         0.01
  WS02006256WS02006235        2.50      2.51      3.73      0.02         0.01
  YS02001580YS02001583        0.27      0.27      0.31      0.01         0.01
  YS02001583YS02001586        0.27      0.27      0.40      0.01         0.01
  YS02001586YS02001590        0.40      0.40      0.46      0.01         0.01
  YS02001590YS02001593        0.46      0.46      0.47      0.48         0.01
  YS02001593YS02001596        0.47      0.47      0.55      0.01         0.01
  YS02001596YS02001600        0.59      0.59      0.69      0.01         0.01
  YS02001600YS02001601        0.75      0.75      1.25      0.01         0.01
  YS02001601YS02001602        1.11      1.11      1.30      0.64         0.01
  YS02001602YS02001605        1.05      1.05      1.11      1.78         0.01
  YS02001605YS02001607        1.03      1.05      1.16      0.88         0.80
  YS02001607YS02001610        0.45      0.45      0.48      0.01         0.01
  YS02001610YS02001613        0.44      0.44      0.48      0.01         0.01
  YS02001613YS02001616        0.40      0.40      0.44      0.01         0.01
  YS02001616YS02001619        0.39      0.39      0.40      0.01         0.01
  YS02001619YS02001622        0.39      0.39      0.39      0.45         0.37
  YS02001622YS02001625        0.39      0.39      0.60      0.01         0.01
  YS02001625YS02001629        0.34      0.34      0.60      0.01         0.01
  YS02001629YS02163301        0.62      0.62      0.68      0.15         0.15
  YS02001633YS02163601        0.83      0.83      1.35      0.36         0.35
  YS02001641YS02001644        1.01      1.02      1.03      0.97         0.82
  YS02001644YS02001647        0.29      0.29      1.03      0.04         0.01
  YS02001647YS02001649        0.29      0.29      2.96      0.01         0.01
  YS02001649YS02001757        2.96      2.96      5.98      0.21         0.17
  YS02001652YS02001649        0.21      0.21      2.96      0.01         0.01
  YS02001655YS02001652        0.05      0.05      0.19      0.01         0.01
  YS02001658YS02001655        0.01      0.01      0.05      0.01         0.01
  YS02001751YS02001754        0.01      0.01      0.06      0.01         0.01
  YS02001754YS02001757        0.10      0.10      5.98      0.01         0.01
  YS02001757CaochengTiaoxuchi        5.91      5.98      5.91      0.19         0.10
  YS02001759YS02001757        4.72      4.72      5.98      0.01         0.01
  YS02001762YS02001759        1.09      1.09      4.72      0.01         0.02
  YS02001765YS02001762        0.27      0.27      1.09      0.01         0.01
  YS02001767YS02001765        0.22      0.22      0.27      0.01         0.02
  YS02001770YS02001767        0.22      0.22      0.22      0.28         0.13
  YS02001774YS02001770        0.20      0.20      0.92      0.01         0.01
  YS02001779YS02001774        0.07      0.07      0.92      0.01         0.01
  YS02001783YS02001784        0.40      0.41      0.41      0.38         0.34
  YS02001784YS02001785        0.40      0.41      0.40      0.55         0.39
  YS02001786YS02001788        0.39      0.40      0.39      0.48         0.39
  YS02001788YS02001790        0.39      0.39      5.98      0.01         0.01
  YS02001790YS02001791        5.98      5.98      5.98      0.19         0.19
  YS02001791YS02001793        5.98      5.98      6.00      0.01         0.01
  YS02001793JiankangQianchi        6.00      6.00      6.17      0.01         0.01
  YS02001882YS02001884        0.28      0.28      0.29      0.01         0.01
  YS02001884YS02001887        0.31      0.31      0.32      0.01         0.01
  YS02001887YS02001890        0.33      0.33      0.34      0.01         0.01
  YS02001890YS02001895        0.27      0.27      0.35      0.01         0.01
  YS02001895YS02001898        0.27      0.27      0.27      0.01         0.01
  YS02001898YS02001901        0.27      0.27      0.31      0.01         0.01
  YS02001901YS02001904        0.30      0.30      0.31      0.01         0.01
  YS02001904YS02001907        0.30      0.30      0.48      0.01         0.01
  YS02001907YS02006553        0.56      0.56      0.60      0.01         0.01
  YS02001910YS02001907        0.35      0.35      0.47      0.01         0.01
  YS02001915YS02001910        0.28      0.28      0.35      0.01         0.01
  YS02001918YS02001915        0.20      0.20      0.28      0.01         0.01
  YS02001920YS02001918        0.20      0.20      0.21      0.01         0.01
  YS02001923YS02001920        0.13      0.13      0.21      0.01         0.01
  YS02001926YS02001923        0.01      0.01      0.01      0.01         0.01
  YS02001929YS02001926        0.01      0.01      0.01      0.01         0.01
  YS02006553YS02006556        0.41      0.41      0.48      0.01         0.01
  YS02006556YS02006558        0.44      0.44      0.49      0.01         0.01
  YS02006558YS02006561        0.30      0.40      0.30      0.53         0.30
  YS02006561YS02001783        0.22      0.22      0.41      0.01         0.01
  YS02163301YS02001633        0.68      0.68      0.97      0.01         0.01
  YS02163601YS02164001        0.86      0.86      1.35      0.12         0.01
  YS02164001YS02001641        0.86      0.86      1.02      0.52         0.49
  
  
  ***************
  Pumping Summary
  ***************
  
  ---------------------------------------------------------------------------------------------------------
                                                  Min       Avg       Max     Total     Power    % Time Off
                        Percent   Number of      Flow      Flow      Flow    Volume     Usage    Pump Curve
  Pump                 Utilized   Start-Ups       LPS       LPS       LPS  10^6 ltr     Kw-hr    Low   High
  ---------------------------------------------------------------------------------------------------------
  CC-R1                    1.06           1      0.00    683.00    683.00     0.208      3.51    0.0  100.0
  CC-R2                    1.06           1      0.00    683.00    683.00     0.208      3.51    0.0  100.0
  CC-S1                   29.03           6      0.00    200.00    200.00     1.672      8.21    0.0    0.0
  CC-S2                   25.90           5      0.00    200.00    200.00     1.492      7.57    0.0    0.0
  JK-R1                    0.97           2      0.00    347.46   1000.00     0.078      0.47    0.0    0.0
  JK-R2                    0.97           2      0.00    347.46   1000.00     0.078      0.47    0.0    0.0
  JK-S                     0.97           2      0.00    104.30    300.00     0.023      0.44    0.0    0.0
  XR-1                   100.00           1      0.00     95.00     95.00     2.736     68.18    0.0    0.0
  XR-2                   100.00           1      0.00     95.00     95.00     2.736     68.18    0.0    0.0
  XR-3                   100.00           1      0.00     95.00     95.00     2.736     68.18    0.0    0.0
  XR-4                   100.00           1      0.00     95.00     95.00     2.736     68.18    0.0    0.0
  

  Analysis begun on:  Wed Nov  5 16:29:29 2025
  Analysis ended on:  Wed Nov  5 16:29:32 2025
  Total elapsed time: 00:00:03