
  EPA STORM WATER MANAGEMENT MODEL - VERSION 5.2 (Build 5.2.4)
  PYSWMM TOOLKIT API - VERSION v1.0 (2023-11-27)
  ------------------------------------------------------------

  WARNING 04: minimum elevation drop used for Conduit WS02004404WS02004405
  WARNING 03: negative offset ignored for Link YS02001904YS02001907
  
  ****************
  Analysis Options
  ****************
  Flow Units ............... LPS
  Process Models:
    Rainfall/Runoff ........ YES
    RDII ................... NO
    Snowmelt ............... NO
    Groundwater ............ NO
    Flow Routing ........... YES
    Ponding Allowed ........ NO
    Water Quality .......... NO
  Infiltration Method ...... HORTON
  Flow Routing Method ...... DYNWAVE
  Surcharge Method ......... EXTRAN
  Starting Date ............ 08/28/2015 08:00:00
  Ending Date .............. 08/28/2015 16:00:00
  Antecedent Dry Days ...... 8.0
  Report Time Step ......... 00:01:00
  Wet Time Step ............ 00:01:00
  Dry Time Step ............ 00:01:00
  Routing Time Step ........ 30.00 sec
  Variable Time Step ....... YES
  Maximum Trials ........... 8
  Number of Threads ........ 4
  Head Tolerance ........... 0.001500 m
  
  
  **************************        Volume         Depth
  Runoff Quantity Continuity     hectare-m            mm
  **************************     ---------       -------
  Initial LID Storage ......         0.049         1.488
  Total Precipitation ......         1.637        49.347
  Evaporation Loss .........         0.000         0.000
  Infiltration Loss ........         0.075         2.276
  Surface Runoff ...........         1.191        35.903
  Final Storage ............         0.421        12.682
  Continuity Error (%) .....        -0.052
  
  
  **************************        Volume        Volume
  Flow Routing Continuity        hectare-m      10^6 ltr
  **************************     ---------     ---------
  Dry Weather Inflow .......         0.602         6.020
  Wet Weather Inflow .......         1.191        11.910
  Groundwater Inflow .......         0.000         0.000
  RDII Inflow ..............         0.000         0.000
  External Inflow ..........         0.105         1.045
  External Outflow .........         1.495        14.955
  Flooding Loss ............         0.382         3.819
  Evaporation Loss .........         0.000         0.000
  Exfiltration Loss ........         0.000         0.000
  Initial Stored Volume ....         0.303         3.031
  Final Stored Volume ......         0.780         7.795
  Continuity Error (%) .....       -20.738
  
  
  *************************
  Highest Continuity Errors
  *************************
  Node YS02001774 (23.68%)
  Node WS02006256 (-6.25%)
  Node YS02001884 (5.17%)
  Node YS02001583 (-5.00%)
  Node YS02001754 (4.53%)
  
  
  ***************************
  Time-Step Critical Elements
  ***************************
  Link WS02001212WS02001213 (35.44%)
  Link WS02006238WS02006235 (20.58%)
  Link WS02006235WS02006234 (19.00%)
  Link YS02006556YS02006558 (6.04%)
  Link WS02003066WSF200 (5.44%)
  
  
  ********************************
  Highest Flow Instability Indexes
  ********************************
  Link WS02006113WS02006111 (39)
  Link WS02006256WS02006235 (29)
  Link WS02006238WS02006235 (29)
  Link WS02006111WS02006112 (28)
  Link WS02006252WS02006251 (25)
  
  
  *********************************
  Most Frequent Nonconverging Nodes
  *********************************
  Node CC-1 (14.78%)
  Node CC-2 (14.78%)
  Node JK-1 (14.78%)
  Node JK-2 (14.78%)
  Node WSC (14.78%)
  
  
  *************************
  Routing Time Step Summary
  *************************
  Minimum Time Step           :     0.01 sec
  Average Time Step           :     3.83 sec
  Maximum Time Step           :     6.46 sec
  % of Time in Steady State   :     0.00
  Average Iterations per Step :     3.36
  % of Steps Not Converging   :    14.78
  Time Step Frequencies       :
     30.000 - 13.228 sec      :     0.00 %
     13.228 -  5.833 sec      :    34.04 %
      5.833 -  2.572 sec      :    38.52 %
      2.572 -  1.134 sec      :    20.96 %
      1.134 -  0.500 sec      :     6.48 %
  
  
  ***************************
  Subcatchment Runoff Summary
  ***************************
  
  ------------------------------------------------------------------------------------------------------------------------------
                            Total      Total      Total      Total     Imperv       Perv      Total       Total     Peak  Runoff
                           Precip      Runon       Evap      Infil     Runoff     Runoff     Runoff      Runoff   Runoff   Coeff
  Subcatchment                 mm         mm         mm         mm         mm         mm         mm    10^6 ltr      LPS
  ------------------------------------------------------------------------------------------------------------------------------
  sub60                     49.35       0.00       0.00       1.36      32.59       3.21      35.80        0.47   315.50   0.726
  sub61                     49.35       0.00       0.00       2.08      32.56       4.78      37.33        0.69   459.61   0.757
  sub62                     49.35       0.00       0.00       0.92      34.70       2.18      36.89        1.01   625.97   0.748
  sub63                     49.35       0.00       0.00       3.82      27.89       7.90      35.78        0.81   516.39   0.725
  sub64                     49.35       0.00       0.00       1.83      31.75       3.94      35.68        0.86   511.51   0.723
  sub65                     49.35       0.00       0.00       1.68      34.26       3.59      37.85        1.04   597.53   0.767
  sub66                     49.35       0.00       0.00       4.45      26.95       6.90      33.85        1.58   767.47   0.686
  sub67                     49.35       0.00       0.00       0.92      35.59       2.27      37.85        0.70   491.62   0.767
  sub68                     49.35       0.00       0.00       1.60      31.43       3.66      35.09        0.97   624.53   0.711
  sub69                     49.35       0.00       0.00       1.46      33.16       4.41      37.57        1.39   773.54   0.761
  sub70                     49.35       0.00       0.00       4.87      26.56       8.86      35.42        1.02   444.22   0.718
  sub71                     49.35       0.00       0.00       0.85      31.52       1.97      33.49        0.88   517.84   0.679
  sub72                     49.35       0.00       0.00       0.81      34.04       1.83      35.87        0.49   266.44   0.727
  

  ***********************
  LID Performance Summary
  ***********************

  --------------------------------------------------------------------------------------------------------------------
                                         Total      Evap     Infil   Surface    Drain    Initial     Final  Continuity
                                        Inflow      Loss      Loss   Outflow   Outflow   Storage   Storage       Error
  Subcatchment      LID Control             mm        mm        mm        mm        mm        mm        mm           %
  --------------------------------------------------------------------------------------------------------------------
  sub60             GreenRoof            49.35      0.00      0.00      0.00      0.00      7.05     56.49       -0.16
  sub61             GreenRoof            49.35      0.00      0.00      0.00      0.00      7.05     56.49       -0.16
  sub62             GreenRoof            49.35      0.00      0.00      0.00      0.00      7.05     56.49       -0.16
  sub63             GreenRoof            49.35      0.00      0.00      0.00      0.00      7.05     56.49       -0.16
  sub64             GreenRoof            49.35      0.00      0.00      0.00      0.00      7.05     56.49       -0.16
  sub65             GreenRoof            49.35      0.00      0.00      0.00      0.00      7.05     56.49       -0.16
  sub66             GreenRoof            49.35      0.00      0.00      0.00      0.00      7.05     56.49       -0.16
  sub67             GreenRoof            49.35      0.00      0.00      0.00      0.00      7.05     56.49       -0.16
  sub68             GreenRoof            49.35      0.00      0.00      0.00      0.00      7.05     56.49       -0.16
  sub69             GreenRoof            49.35      0.00      0.00      0.00      0.00      7.05     56.49       -0.16
  sub70             GreenRoof            49.35      0.00      0.00      0.00      0.00      7.05     56.49       -0.16
  sub71             GreenRoof            49.35      0.00      0.00      0.00      0.00      7.05     56.49       -0.16
  sub72             GreenRoof            49.35      0.00      0.00      0.00      0.00      7.05     56.49       -0.16
  
  ******************
  Node Depth Summary
  ******************
  
  ---------------------------------------------------------------------------------
                                 Average  Maximum  Maximum  Time of Max    Reported
                                   Depth    Depth      HGL   Occurrence   Max Depth
  Node                 Type       Meters   Meters   Meters  days hr:min      Meters
  ---------------------------------------------------------------------------------
  WS02001211           JUNCTION     0.76     0.78     5.62     0  03:30        0.78
  WS02001212           JUNCTION     0.46     0.49     5.55     0  03:28        0.49
  WS02001213           JUNCTION     0.68     0.73     5.49     0  03:27        0.73
  WS02003059           JUNCTION     0.73     0.78     5.47     0  03:29        0.78
  WS02003060           JUNCTION     0.38     0.47     5.41     0  03:26        0.47
  WS02003066           JUNCTION     0.16     0.27     5.82     0  03:26        0.27
  WS02003067           JUNCTION     0.43     0.65     5.97     0  03:25        0.65
  WS02003069           JUNCTION     0.42     0.54     5.12     0  03:27        0.54
  WS02003072           JUNCTION     0.49     0.60     4.97     0  03:13        0.60
  WS02003073           JUNCTION     0.29     0.37     4.43     0  03:13        0.37
  WS02004138           JUNCTION     0.19     0.20     7.45     0  00:00        0.19
  WS02004139           JUNCTION     0.71     0.73     5.64     0  03:14        0.73
  WS02004401           JUNCTION     0.51     0.75     6.75     0  03:22        0.75
  WS02004402           JUNCTION     0.54     0.78     6.74     0  03:23        0.78
  WS02004403           JUNCTION     0.56     0.80     6.73     0  03:23        0.80
  WS02004404           JUNCTION     0.64     0.88     6.73     0  03:23        0.88
  WS02004405           JUNCTION     0.64     0.88     6.73     0  03:23        0.87
  WS02004406           JUNCTION     0.65     0.88     6.71     0  03:23        0.88
  WS02004407           JUNCTION     0.13     0.26     6.57     0  03:24        0.26
  WS02004409           JUNCTION     0.30     0.58     6.35     0  03:24        0.57
  WS02004410           JUNCTION     0.33     0.59     6.31     0  03:24        0.59
  WS02004411           JUNCTION     0.35     0.61     6.29     0  03:24        0.61
  WS02004412           JUNCTION     0.38     0.62     6.26     0  03:25        0.62
  WS02004413           JUNCTION     0.53     0.79     6.26     0  03:25        0.79
  WS02006109           JUNCTION     0.56     0.83     7.45     0  02:12        0.83
  WS02006110           JUNCTION     0.57     0.82     7.41     0  02:12        0.82
  WS02006111           JUNCTION     0.14     0.25     6.96     0  02:30        0.25
  WS02006112           JUNCTION     0.65     0.93     6.82     0  03:27        0.93
  WS02006113           JUNCTION     0.21     0.39     7.29     0  03:26        0.39
  WS02006115           JUNCTION     0.39     0.65     6.78     0  03:27        0.65
  WS02006116           JUNCTION     0.48     0.73     6.77     0  03:22        0.73
  WS02006228           JUNCTION     0.54     0.84     7.49     0  02:12        0.84
  WS02006229           JUNCTION     0.51     0.82     7.52     0  02:29        0.82
  WS02006230           JUNCTION     0.50     0.86     7.60     0  02:29        0.86
  WS02006231           JUNCTION     0.30     0.60     7.72     0  02:13        0.60
  WS02006232           JUNCTION     0.42     0.75     7.79     0  02:19        0.75
  WS02006234           JUNCTION     0.34     0.71     7.87     0  02:32        0.71
  WS02006235           JUNCTION     0.37     0.77     7.93     0  02:29        0.76
  WS02006238           JUNCTION     0.39     0.81     7.95     0  02:15        0.80
  WS02006239           JUNCTION     0.37     0.81     8.02     0  02:10        0.80
  WS02006240           JUNCTION     0.36     0.79     8.08     0  02:10        0.79
  WS02006242           JUNCTION     0.42     0.91     8.17     0  02:18        0.90
  WS02006243           JUNCTION     0.36     0.84     8.26     0  02:54        0.84
  WS02006245           JUNCTION     0.36     0.86     8.34     0  02:39        0.85
  WS02006247           JUNCTION     0.38     0.89     8.39     0  03:01        0.89
  WS02006248           JUNCTION     0.36     0.86     8.44     0  02:54        0.85
  WS02006249           JUNCTION     0.38     1.09     8.69     0  02:26        1.09
  WS02006251           JUNCTION     0.38     0.91     8.58     0  02:28        0.91
  WS02006252           JUNCTION     0.25     1.50     9.74     0  00:00        0.61
  WS02006256           JUNCTION     0.60     2.35     9.28     0  00:00        2.35
  WSF200               JUNCTION     0.13     0.25     5.48     0  03:26        0.25
  YS02001580           JUNCTION     0.07     1.05     9.59     0  02:08        1.05
  YS02001583           JUNCTION     0.10     1.02     9.51     0  02:08        1.00
  YS02001586           JUNCTION     0.18     1.13     9.30     0  02:08        1.13
  YS02001590           JUNCTION     0.27     1.40     9.26     0  02:09        1.40
  YS02001593           JUNCTION     0.21     1.31     9.17     0  02:09        1.31
  YS02001596           JUNCTION     0.38     1.68     9.10     0  02:26        1.67
  YS02001600           JUNCTION     0.60     1.87     9.00     0  02:09        1.87
  YS02001601           JUNCTION     0.85     2.06     8.90     0  02:08        2.06
  YS02001602           JUNCTION     0.76     1.87     8.77     0  02:08        1.87
  YS02001605           JUNCTION     0.73     1.78     8.68     0  02:26        1.77
  YS02001607           JUNCTION     0.72     1.65     8.50     0  02:26        1.64
  YS02001610           JUNCTION     0.76     1.68     8.48     0  02:11        1.68
  YS02001613           JUNCTION     0.72     1.68     8.52     0  02:26        1.65
  YS02001616           JUNCTION     0.66     1.61     8.52     0  02:26        1.59
  YS02001619           JUNCTION     0.64     1.61     8.54     0  02:26        1.58
  YS02001622           JUNCTION     0.65     1.62     8.52     0  02:26        1.62
  YS02001625           JUNCTION     0.90     1.78     8.38     0  02:11        1.78
  YS02001629           JUNCTION     0.91     1.85     8.40     0  02:12        1.85
  YS02001633           JUNCTION     0.99     2.08     8.53     0  02:26        2.08
  YS02001641           JUNCTION     0.97     2.10     8.54     0  02:26        2.10
  YS02001644           JUNCTION     0.97     1.92     8.35     0  02:13        1.92
  YS02001647           JUNCTION     0.78     1.90     8.51     0  02:26        1.90
  YS02001649           JUNCTION     0.92     2.05     8.44     0  02:26        2.05
  YS02001652           JUNCTION     0.75     1.68     8.27     0  02:13        1.65
  YS02001655           JUNCTION     0.57     1.58     8.43     0  02:13        1.42
  YS02001658           JUNCTION     0.37     1.47     8.61     0  02:13        1.12
  YS02001661           JUNCTION     0.21     0.92     8.32     0  02:14        0.85
  YS02001664           JUNCTION     0.06     0.31     8.23     0  02:14        0.27
  YS02001745           JUNCTION     0.11     0.63     8.15     0  02:14        0.57
  YS02001748           JUNCTION     0.40     1.25     8.33     0  02:13        1.06
  YS02001751           JUNCTION     0.53     1.35     8.23     0  02:13        1.25
  YS02001754           JUNCTION     0.72     1.54     8.15     0  02:13        1.51
  YS02001757           JUNCTION     1.00     2.21     8.47     0  02:26        2.21
  YS02001759           JUNCTION     0.92     2.21     8.57     0  02:26        2.21
  YS02001762           JUNCTION     0.89     1.89     8.29     0  02:26        1.89
  YS02001765           JUNCTION     0.85     1.77     8.22     0  02:14        1.76
  YS02001767           JUNCTION     0.83     1.77     8.26     0  02:14        1.75
  YS02001770           JUNCTION     0.83     1.81     8.31     0  02:14        1.79
  YS02001774           JUNCTION     0.89     1.90     8.32     0  02:12        1.86
  YS02001779           JUNCTION     0.67     1.68     8.37     0  02:12        1.60
  YS02001783           JUNCTION     0.46     1.56     7.70     0  02:11        1.49
  YS02001784           JUNCTION     0.51     1.51     7.58     0  02:05        1.43
  YS02001786           JUNCTION     0.51     1.72     7.75     0  02:05        1.27
  YS02001788           JUNCTION     0.52     1.31     7.28     0  02:05        1.13
  YS02001790           JUNCTION     0.74     1.40     7.04     0  02:04        1.29
  YS02001791           JUNCTION     0.83     1.36     6.83     0  02:05        1.27
  YS02001793           JUNCTION     1.26     1.88     6.71     0  02:05        1.80
  YS02001882           JUNCTION     0.29     1.66     8.38     0  02:11        1.65
  YS02001884           JUNCTION     0.38     1.75     8.37     0  02:11        1.74
  YS02001887           JUNCTION     0.45     1.82     8.36     0  02:11        1.81
  YS02001890           JUNCTION     0.48     1.81     8.32     0  02:11        1.81
  YS02001895           JUNCTION     0.26     1.58     8.33     0  02:11        1.55
  YS02001898           JUNCTION     0.27     1.59     8.32     0  02:11        1.56
  YS02001901           JUNCTION     0.38     1.70     8.31     0  02:11        1.67
  YS02001904           JUNCTION     0.36     1.65     8.28     0  02:11        1.63
  YS02001907           JUNCTION     0.67     1.96     8.25     0  02:11        1.96
  YS02001910           JUNCTION     0.47     1.98     8.49     0  02:12        1.81
  YS02001915           JUNCTION     0.29     1.93     8.65     0  02:12        1.67
  YS02001918           JUNCTION     0.14     1.81     8.88     0  02:12        1.35
  YS02001920           JUNCTION     0.22     2.14     9.15     0  02:12        1.42
  YS02001923           JUNCTION     0.10     2.03     9.29     0  02:12        1.20
  YS02001926           JUNCTION     0.14     1.90     9.35     0  02:12        1.00
  YS02001929           JUNCTION     0.08     1.78     9.47     0  02:12        0.74
  YS02006553           JUNCTION     0.67     1.98     8.27     0  02:11        1.97
  YS02006556           JUNCTION     0.65     1.97     8.28     0  02:11        1.95
  YS02006558           JUNCTION     0.69     2.02     8.28     0  02:11        2.00
  YS02006561           JUNCTION     0.16     1.17     7.83     0  02:11        1.11
  YS02163301           JUNCTION     0.93     2.03     8.55     0  02:26        2.03
  YS02163601           JUNCTION     1.02     2.08     8.48     0  02:26        2.08
  YS02164001           JUNCTION     0.96     2.10     8.56     0  02:26        2.10
  CC-1                 OUTFALL      0.00     0.00     0.00     0  00:00        0.00
  CC-2                 OUTFALL      0.00     0.00     0.00     0  00:00        0.00
  JK-1                 OUTFALL      0.00     0.00     0.00     0  00:00        0.00
  JK-2                 OUTFALL      0.00     0.00     0.00     0  00:00        0.00
  WSC                  OUTFALL      0.29     0.37     1.04     0  03:14        0.37
  CC-storage           STORAGE      1.57     2.15     7.65     0  03:04        2.15
  JK-storage           STORAGE      4.37     5.80     6.60     0  02:04        5.80
  XR-storage           STORAGE      0.31     5.00     3.00     0  00:00        4.91
  
  
  *******************
  Node Inflow Summary
  *******************
  
  -------------------------------------------------------------------------------------------------
                                  Maximum  Maximum                  Lateral       Total        Flow
                                  Lateral    Total  Time of Max      Inflow      Inflow     Balance
                                   Inflow   Inflow   Occurrence      Volume      Volume       Error
  Node                 Type           LPS      LPS  days hr:min    10^6 ltr    10^6 ltr     Percent
  -------------------------------------------------------------------------------------------------
  WS02001211           JUNCTION      7.35   389.13     0  03:41       0.212        11.1       0.348
  WS02001212           JUNCTION      0.00   390.85     0  03:41           0        11.1       0.207
  WS02001213           JUNCTION      0.00   392.61     0  03:40           0        11.1       0.238
  WS02003059           JUNCTION      0.00   395.66     0  03:40           0          11       0.328
  WS02003060           JUNCTION     16.53   816.10     0  03:26       0.476        14.4       0.149
  WS02003066           JUNCTION      0.00   411.91     0  03:25           0        2.96       0.041
  WS02003067           JUNCTION      0.00   411.90     0  03:25           0        2.96       0.135
  WS02003069           JUNCTION      0.32   816.37     0  03:26     0.00922        14.4       0.158
  WS02003072           JUNCTION      0.00   816.34     0  03:27           0        14.4       0.206
  WS02003073           JUNCTION      1.82   818.16     0  03:13      0.0524        14.4       0.221
  WS02004138           JUNCTION      0.00   380.00     0  00:00           0        10.9       0.059
  WS02004139           JUNCTION      0.32   395.52     0  00:00     0.00924        10.9       0.407
  WS02004401           JUNCTION      0.00   412.32     0  03:22           0        3.06       0.324
  WS02004402           JUNCTION      0.00   412.20     0  03:22           0        3.05       0.330
  WS02004403           JUNCTION      0.00   412.22     0  03:23           0        3.04       0.324
  WS02004404           JUNCTION      0.16   412.31     0  03:23     0.00467        3.03       0.271
  WS02004405           JUNCTION      0.04   412.35     0  03:23      0.0011        3.03       0.404
  WS02004406           JUNCTION      0.00   412.41     0  03:23           0        3.02       0.677
  WS02004407           JUNCTION      0.00   412.18     0  03:23           0        2.99       0.031
  WS02004409           JUNCTION      0.00   412.10     0  03:24           0        2.99       0.072
  WS02004410           JUNCTION      0.00   412.05     0  03:24           0        2.99       0.130
  WS02004411           JUNCTION      0.00   412.02     0  03:24           0        2.99       0.170
  WS02004412           JUNCTION      0.00   411.98     0  03:25           0        2.98       0.234
  WS02004413           JUNCTION      0.00   412.00     0  03:25           0        2.98       0.422
  WS02006109           JUNCTION      1.23   411.73     0  02:49      0.0354         3.1       0.190
  WS02006110           JUNCTION      0.00   411.74     0  03:22           0         3.1       0.200
  WS02006111           JUNCTION      0.00   423.16     0  02:41           0        3.09       0.029
  WS02006112           JUNCTION      0.00   413.96     0  02:30           0        3.09       0.565
  WS02006113           JUNCTION      0.00   411.93     0  02:16           0        3.09       0.043
  WS02006115           JUNCTION      0.00   412.54     0  03:27           0        3.07       0.202
  WS02006116           JUNCTION      0.00   412.28     0  03:22           0        3.06       0.147
  WS02006228           JUNCTION      0.00   410.50     0  02:49           0        3.07       0.050
  WS02006229           JUNCTION      0.00   410.50     0  02:49           0        3.07       0.156
  WS02006230           JUNCTION     10.28   410.77     0  02:29       0.296        3.08       0.179
  WS02006231           JUNCTION      0.00   400.52     0  02:28           0        2.78      -0.084
  WS02006232           JUNCTION      0.00   400.49     0  02:28           0        2.79       0.295
  WS02006234           JUNCTION      0.00   401.86     0  02:19           0        2.78      -0.196
  WS02006235           JUNCTION      0.00   402.82     0  02:11           0         2.8       0.260
  WS02006238           JUNCTION      0.00   402.03     0  02:56           0        2.77      -0.372
  WS02006239           JUNCTION      0.00   401.53     0  02:17           0        2.76      -0.252
  WS02006240           JUNCTION      0.00   401.12     0  02:28           0        2.75      -0.115
  WS02006242           JUNCTION      0.00   400.90     0  02:33           0        2.75      -0.029
  WS02006243           JUNCTION      0.00   401.34     0  02:24           0        2.75      -0.086
  WS02006245           JUNCTION      0.00   403.02     0  02:28           0        2.76       0.512
  WS02006247           JUNCTION      0.00   401.00     0  03:00           0        2.76       0.020
  WS02006248           JUNCTION      0.00   404.33     0  01:47           0        2.76       0.116
  WS02006249           JUNCTION      0.00   462.75     0  01:46           0        2.77       0.350
  WS02006251           JUNCTION      0.08   402.91     0  01:45     0.00222        2.77       0.004
  WS02006252           JUNCTION      0.00   400.00     0  00:00           0        2.77      -0.057
  WS02006256           JUNCTION      0.00   300.00     0  00:00           0      0.0242      -5.882
  WSF200               JUNCTION      0.00   411.90     0  03:26           0        2.96       0.018
  YS02001580           JUNCTION      0.00   115.77     0  02:08           0     0.00408      -2.858
  YS02001583           JUNCTION      0.00   163.32     0  02:08           0      0.0151      -4.762
  YS02001586           JUNCTION    444.22   444.25     0  02:15        1.02        1.04       0.120
  YS02001590           JUNCTION      0.00   318.01     0  02:23           0       0.962       0.017
  YS02001593           JUNCTION      0.00   318.05     0  02:12           0       0.962       0.060
  YS02001596           JUNCTION      0.00   318.15     0  02:16           0       0.961       0.184
  YS02001600           JUNCTION      0.00   318.22     0  02:16           0        0.96       0.689
  YS02001601           JUNCTION    773.54  1091.00     0  02:14        1.39        2.35       0.384
  YS02001602           JUNCTION      0.00   513.30     0  02:08           0        1.78       0.529
  YS02001605           JUNCTION      0.00   512.86     0  02:08           0        1.71       0.829
  YS02001607           JUNCTION      0.00   512.75     0  02:08           0         1.7       1.156
  YS02001610           JUNCTION      0.00   511.53     0  02:07           0        1.68       1.267
  YS02001613           JUNCTION      0.00   510.67     0  02:07           0        1.52       1.441
  YS02001616           JUNCTION      0.00   509.80     0  02:08           0         1.5       1.257
  YS02001619           JUNCTION    767.47   933.45     0  02:10        1.58        3.06       0.600
  YS02001622           JUNCTION      0.00   930.66     0  02:10           0        3.04       0.844
  YS02001625           JUNCTION      0.00   930.12     0  02:10           0        3.02       1.491
  YS02001629           JUNCTION      0.00   928.92     0  02:10           0         2.7       0.749
  YS02001633           JUNCTION    597.73  1393.10     0  02:11        1.05         3.7       0.873
  YS02001641           JUNCTION      0.00  1392.00     0  02:11           0        3.63       0.584
  YS02001644           JUNCTION    511.55  1799.41     0  02:11       0.858        4.46       0.584
  YS02001647           JUNCTION      0.00  1798.99     0  02:11           0        4.43       0.630
  YS02001649           JUNCTION      0.00  2018.97     0  02:10           0        5.17       0.736
  YS02001652           JUNCTION      0.00   605.03     0  02:15           0       0.803       2.932
  YS02001655           JUNCTION      0.15   604.66     0  02:15     0.00443        0.82       2.086
  YS02001658           JUNCTION      0.00   687.19     0  02:13           0       0.848       1.342
  YS02001661           JUNCTION      0.00   561.11     0  02:14           0       0.842       0.494
  YS02001664           JUNCTION    516.39   516.39     0  02:13       0.812       0.812      -0.030
  YS02001745           JUNCTION    315.51   317.57     0  02:13       0.471       0.492       0.699
  YS02001748           JUNCTION      0.04   539.82     0  02:13      0.0013       0.507       1.848
  YS02001751           JUNCTION      0.01   362.25     0  02:12    0.000317       0.495       4.017
  YS02001754           JUNCTION      0.26   352.23     0  02:16     0.00749       0.488       4.745
  YS02001757           JUNCTION      0.00  3139.51     0  02:14           0        7.12       1.334
  YS02001759           JUNCTION    459.65  1138.12     0  02:12       0.686        1.57       1.489
  YS02001762           JUNCTION      0.00   682.96     0  02:12           0       0.905       2.398
  YS02001765           JUNCTION      0.00   670.56     0  02:12           0       0.929       2.716
  YS02001767           JUNCTION      0.54   660.25     0  02:12      0.0154       0.964       3.829
  YS02001770           JUNCTION    626.12   639.47     0  02:13        1.02        1.05       3.067
  YS02001774           JUNCTION      0.00   336.27     0  02:12           0       0.107      31.036
  YS02001779           JUNCTION      0.01   342.28     0  02:12    0.000144      0.0459      41.550
  YS02001783           JUNCTION      0.00   971.74     0  02:13           0        2.76       0.253
  YS02001784           JUNCTION      1.06   973.42     0  02:13      0.0305        2.79       0.391
  YS02001786           JUNCTION      0.06   973.02     0  02:13     0.00162        2.78       0.485
  YS02001788           JUNCTION      0.07   973.53     0  02:13     0.00204        2.77       0.501
  YS02001790           JUNCTION      0.15   973.93     0  02:13     0.00446        2.76       0.605
  YS02001791           JUNCTION      0.00   974.23     0  02:13           0        2.74       0.535
  YS02001793           JUNCTION      0.00   975.17     0  02:13           0        2.73       0.610
  YS02001882           JUNCTION      0.00    54.59     0  02:09           0      0.0125       5.782
  YS02001884           JUNCTION      0.00    89.48     0  02:09           0      0.0483       5.451
  YS02001887           JUNCTION    492.07   492.24     0  02:13       0.717        0.75       0.599
  YS02001890           JUNCTION      0.00   492.41     0  02:13           0       0.709       0.729
  YS02001895           JUNCTION      0.00   484.71     0  02:13           0       0.702       0.210
  YS02001898           JUNCTION      0.00   484.42     0  02:13           0         0.7       0.015
  YS02001901           JUNCTION      0.00   486.37     0  02:13           0       0.703       0.483
  YS02001904           JUNCTION      0.00   485.06     0  02:13           0       0.707       0.428
  YS02001907           JUNCTION      0.00  1440.93     0  02:13           0        2.15       0.850
  YS02001910           JUNCTION      0.00   963.81     0  02:13           0        1.45       0.506
  YS02001915           JUNCTION    517.86   962.27     0  02:13       0.877         1.5       0.111
  YS02001918           JUNCTION      0.00   488.38     0  02:11           0       0.654       0.007
  YS02001920           JUNCTION      2.87   451.45     0  02:11      0.0827       0.635       0.109
  YS02001923           JUNCTION      0.04   448.87     0  02:11     0.00109       0.535      -0.135
  YS02001926           JUNCTION      0.05   735.89     0  02:12      0.0015       0.513      -0.066
  YS02001929           JUNCTION    266.44   569.74     0  02:11       0.493       0.498      -0.050
  YS02006553           JUNCTION      0.00   672.36     0  02:23           0        1.82       0.664
  YS02006556           JUNCTION      0.00   672.86     0  02:23           0        1.82       0.459
  YS02006558           JUNCTION    625.41   973.42     0  02:12       0.991        2.79       0.133
  YS02006561           JUNCTION      0.00   972.20     0  02:12           0        2.76      -0.016
  YS02163301           JUNCTION      0.00   926.78     0  02:10           0        2.68       0.905
  YS02163601           JUNCTION      0.11  1392.61     0  02:11     0.00317        3.67       0.821
  YS02164001           JUNCTION      0.00  1392.77     0  02:11           0        3.64       0.560
  CC-1                 OUTFALL       0.00   683.00     0  00:00           0       0.208       0.000
  CC-2                 OUTFALL       0.00   683.00     0  00:00           0       0.208       0.000
  JK-1                 OUTFALL       0.00  1000.00     0  00:00           0      0.0791       0.000
  JK-2                 OUTFALL       0.00  1000.00     0  00:00           0      0.0791       0.000
  WSC                  OUTFALL       0.00   818.15     0  03:14           0        14.4       0.000
  CC-storage           STORAGE       0.00  3142.50     0  02:14           0        9.22       0.441
  JK-storage           STORAGE       0.00   974.04     0  02:13           0        2.86       0.564
  XR-storage           STORAGE     200.00   200.00     0  00:00        5.76        6.36     -41.886
  
  
  **********************
  Node Surcharge Summary
  **********************
  
  Surcharging occurs when water rises above the top of the highest conduit.
  ---------------------------------------------------------------------
                                               Max. Height   Min. Depth
                                   Hours       Above Crown    Below Rim
  Node                 Type      Surcharged         Meters       Meters
  ---------------------------------------------------------------------
  WS02006109           JUNCTION        1.45          0.015        1.805
  WS02006228           JUNCTION        1.44          0.013        2.187
  WS02006229           JUNCTION        1.47          0.025        2.425
  WS02006232           JUNCTION        1.52          0.050        1.430
  WS02006235           JUNCTION        1.46          0.055        1.235
  WS02006238           JUNCTION        1.48          0.090        1.340
  WS02006239           JUNCTION        1.46          0.068        1.222
  WS02006240           JUNCTION        1.47          0.079        1.311
  WS02006242           JUNCTION        1.56          0.176        0.644
  WS02006243           JUNCTION        1.48          0.134        0.636
  WS02006245           JUNCTION        1.48          0.146        0.704
  WS02006247           JUNCTION        1.50          0.181        0.579
  WS02006248           JUNCTION        1.48          0.138        0.242
  WS02006249           JUNCTION        1.49          0.390        0.000
  WS02006252           JUNCTION        1.92          1.100        0.000
  WS02006256           JUNCTION        3.01          2.050        0.000
  YS02001580           JUNCTION        0.33          0.450        0.000
  YS02001583           JUNCTION        0.34          0.377        0.123
  YS02001586           JUNCTION        0.48          0.510        0.000
  YS02001590           JUNCTION        0.55          0.750        0.000
  YS02001593           JUNCTION        0.56          0.691        0.149
  YS02001596           JUNCTION        0.69          0.951        0.119
  YS02001600           JUNCTION        1.02          1.190        0.000
  YS02001601           JUNCTION        6.14          1.440        0.000
  YS02001602           JUNCTION        6.08          1.270        0.000
  YS02001605           JUNCTION        6.06          1.180        0.000
  YS02001607           JUNCTION        0.65          0.650        0.030
  YS02001610           JUNCTION        0.71          0.680        0.000
  YS02001613           JUNCTION        0.64          0.677        0.023
  YS02001616           JUNCTION        0.57          0.610        0.000
  YS02001619           JUNCTION        0.56          0.610        0.000
  YS02001622           JUNCTION        0.56          0.620        0.000
  YS02001625           JUNCTION        5.52          0.780        0.000
  YS02001629           JUNCTION        0.50          0.470        0.000
  YS02001633           JUNCTION        5.91          1.060        0.000
  YS02001641           JUNCTION        5.88          1.100        0.000
  YS02001644           JUNCTION        5.87          0.920        0.000
  YS02001647           JUNCTION        5.27          0.900        0.000
  YS02001649           JUNCTION        5.82          1.050        0.000
  YS02001652           JUNCTION        4.61          0.645        0.485
  YS02001655           JUNCTION        0.18          0.584        0.616
  YS02001658           JUNCTION        0.03          0.470        0.830
  YS02001748           JUNCTION        0.01          0.172        1.018
  YS02001751           JUNCTION        0.07          0.346        0.854
  YS02001754           JUNCTION        0.63          0.493        0.657
  YS02001757           JUNCTION        5.81          1.210        0.000
  YS02001759           JUNCTION        5.81          1.210        0.000
  YS02001762           JUNCTION        5.80          0.887        0.263
  YS02001765           JUNCTION        5.80          0.771        0.329
  YS02001767           JUNCTION        5.80          0.767        0.263
  YS02001770           JUNCTION        5.80          0.781        0.139
  YS02001774           JUNCTION        5.80          0.897        0.153
  YS02001779           JUNCTION        0.40          0.680        0.000
  YS02001783           JUNCTION        0.52          0.758        0.842
  YS02001784           JUNCTION        0.52          0.714        0.776
  YS02001786           JUNCTION        0.51          0.919        0.511
  YS02001788           JUNCTION        0.52          0.508        0.972
  YS02001790           JUNCTION        5.93          0.598        0.559
  YS02001791           JUNCTION        5.94          0.558        1.362
  YS02001793           JUNCTION        5.97          0.875        1.725
  YS02001882           JUNCTION        0.31          0.660        0.170
  YS02001884           JUNCTION        0.32          0.693        0.177
  YS02001887           JUNCTION        0.35          0.768        0.182
  YS02001890           JUNCTION        0.36          0.760        0.000
  YS02001895           JUNCTION        0.30          0.580        0.170
  YS02001898           JUNCTION        0.30          0.559        0.181
  YS02001901           JUNCTION        0.34          0.696        0.174
  YS02001904           JUNCTION        0.33          0.649        0.201
  YS02001907           JUNCTION        0.53          0.950        0.000
  YS02001910           JUNCTION        0.38          0.980        0.120
  YS02001915           JUNCTION        0.31          0.930        0.070
  YS02001918           JUNCTION        0.23          0.810        0.000
  YS02001920           JUNCTION        0.24          1.140        0.000
  YS02001923           JUNCTION        0.01          0.820        0.000
  YS02001926           JUNCTION        0.01          0.900        0.000
  YS02001929           JUNCTION        0.01          0.780        0.000
  YS02006553           JUNCTION        0.55          0.983        0.207
  YS02006556           JUNCTION        0.46          0.933        0.417
  YS02006558           JUNCTION        0.45          0.917        0.483
  YS02006561           JUNCTION        0.26          0.366        0.784
  YS02163301           JUNCTION        5.90          1.030        0.000
  YS02163601           JUNCTION        5.91          1.080        0.000
  YS02164001           JUNCTION        5.88          1.100        0.000
  
  
  *********************
  Node Flooding Summary
  *********************
  
  Flooding refers to all water that overflows a node, whether it ponds or not.
  --------------------------------------------------------------------------
                                                             Total   Maximum
                                 Maximum   Time of Max       Flood    Ponded
                        Hours       Rate    Occurrence      Volume     Depth
  Node                 Flooded       LPS   days hr:min    10^6 ltr    Meters
  --------------------------------------------------------------------------
  WS02006249              0.01      0.60      0  02:26       0.000     0.000
  WS02006252              0.01    245.63      0  00:00       0.000     0.000
  WS02006256              0.02    293.19      0  00:00       0.005     0.000
  YS02001580              0.01     90.04      0  02:08       0.000     0.000
  YS02001586              0.23    126.62      0  02:15       0.061     0.000
  YS02001590              0.01      9.68      0  02:09       0.000     0.000
  YS02001600              0.01      2.17      0  02:26       0.000     0.000
  YS02001601              0.42    693.08      0  02:14       0.556     0.000
  YS02001602              0.33     62.08      0  02:15       0.061     0.000
  YS02001605              0.01      1.80      0  02:26       0.000     0.000
  YS02001610              0.26    266.39      0  02:15       0.150     0.000
  YS02001616              0.01     20.02      0  02:26       0.000     0.000
  YS02001619              0.01     22.57      0  02:26       0.000     0.000
  YS02001622              0.01      0.74      0  02:26       0.000     0.000
  YS02001625              0.24    768.34      0  02:15       0.282     0.000
  YS02001629              0.03     35.56      0  02:14       0.002     0.000
  YS02001633              0.01      1.42      0  02:26       0.000     0.000
  YS02001641              0.01      3.23      0  02:26       0.000     0.000
  YS02001644              0.01     51.71      0  02:14       0.001     0.000
  YS02001647              0.01      5.42      0  02:26       0.000     0.000
  YS02001649              0.01      2.78      0  02:26       0.000     0.000
  YS02001757              0.01      3.15      0  02:26       0.000     0.000
  YS02001759              0.01      1.95      0  02:26       0.000     0.000
  YS02001779              0.01    258.78      0  02:12       0.002     0.000
  YS02001890              0.03     50.25      0  02:11       0.003     0.000
  YS02001907              0.18   1098.71      0  02:13       0.322     0.000
  YS02001918              0.01    248.90      0  02:12       0.003     0.000
  YS02001920              0.01     46.91      0  02:12       0.000     0.000
  YS02001923              0.01    160.57      0  02:12       0.001     0.000
  YS02001926              0.01     99.35      0  02:12       0.001     0.000
  YS02001929              0.01     55.77      0  02:12       0.000     0.000
  YS02163301              0.01      2.03      0  02:26       0.000     0.000
  YS02163601              0.01      2.42      0  02:26       0.000     0.000
  YS02164001              0.01      5.62      0  02:26       0.000     0.000
  JK-storage              5.92    973.68      0  02:13       2.370     0.000
  
  
  **********************
  Storage Volume Summary
  **********************
  
  ------------------------------------------------------------------------------------------------
                         Average    Avg   Evap  Exfil     Maximum    Max    Time of Max    Maximum
                          Volume   Pcnt   Pcnt   Pcnt      Volume   Pcnt     Occurrence    Outflow
  Storage Unit           1000 m³   Full   Loss   Loss     1000 m³   Full    days hr:min        LPS
  ------------------------------------------------------------------------------------------------
  CC-storage               4.386   68.4    0.0    0.0       5.992   93.5       0  03:04    1783.53
  JK-storage               0.220   75.4    0.0    0.0       0.291  100.0       0  02:04    2300.00
  XR-storage               0.037    2.6    0.0    0.0       0.600   41.7       0  00:00     380.00
  
  
  ***********************
  Outfall Loading Summary
  ***********************
  
  -----------------------------------------------------------
                         Flow       Avg       Max       Total
                         Freq      Flow      Flow      Volume
  Outfall Node           Pcnt       LPS       LPS    10^6 ltr
  -----------------------------------------------------------
  CC-1                   1.36    683.00    683.00       0.208
  CC-2                   1.36    683.00    683.00       0.208
  JK-1                   1.26    347.46   1000.00       0.079
  JK-2                   1.26    347.46   1000.00       0.079
  WSC                   99.92    554.92    818.15      14.380
  -----------------------------------------------------------
  System                21.03   2615.85   3366.35      14.955
  
  
  ********************
  Link Flow Summary
  ********************
  
  -----------------------------------------------------------------------------
                                 Maximum  Time of Max   Maximum    Max/    Max/
                                  |Flow|   Occurrence   |Veloc|    Full    Full
  Link                 Type          LPS  days hr:min     m/sec    Flow   Depth
  -----------------------------------------------------------------------------
  1                    CONDUIT    818.15     0  03:14      3.15    0.28    0.37
  WS02001211WS02001212 CONDUIT    390.85     0  03:41      0.78    0.30    0.64
  WS02001212WS02001213 CONDUIT    392.61     0  03:40      1.32    0.61    0.45
  WS02001213WS02003059 CONDUIT    395.66     0  03:40      0.85    0.65    0.75
  WS02003059WS02003060 CONDUIT    399.95     0  03:40      0.95    0.26    0.63
  WS02003060WS02003069 CONDUIT    816.05     0  03:26      1.80    0.32    0.42
  WS02003066WSF200     CONDUIT    411.90     0  03:26      2.69    0.07    0.19
  WS02003067WS02003066 CONDUIT    411.91     0  03:25      1.04    0.13    0.38
  WS02003069WS02003072 CONDUIT    816.34     0  03:27      1.55    0.39    0.47
  WS02003072WS02003073 CONDUIT    816.33     0  03:13      1.64    1.76    0.45
  WS02004138WS02004139 CONDUIT    395.20     0  00:00      3.65    0.08    0.43
  WS02004139WS02001211 CONDUIT    381.78     0  03:41      0.91    0.48    0.59
  WS02004401WS02004402 CONDUIT    412.20     0  03:22      0.99    0.49    0.77
  WS02004402WS02004403 CONDUIT    412.22     0  03:23      0.99    0.59    0.79
  WS02004403WS02004404 CONDUIT    412.15     0  03:23      0.93    0.30    0.84
  WS02004404WS02004405 CONDUIT    412.31     0  03:23      1.10    4.04    0.88
  WS02004405WS02004406 CONDUIT    412.41     0  03:23      1.03    0.81    0.88
  WS02004406WS02004407 CONDUIT    412.18     0  03:23      0.89    0.18    0.57
  WS02004407WS02004409 CONDUIT    412.10     0  03:24      1.36    0.15    0.42
  WS02004409WS02004410 CONDUIT    412.05     0  03:24      0.88    0.53    0.58
  WS02004410WS02004411 CONDUIT    412.02     0  03:24      0.84    0.56    0.60
  WS02004411WS02004412 CONDUIT    411.98     0  03:25      0.81    0.59    0.61
  WS02004412WS02004413 CONDUIT    412.00     0  03:25      0.70    0.28    0.70
  WS02004413WS02003067 CONDUIT    411.90     0  03:25      0.96    0.18    0.54
  WS02006109WS02006110 CONDUIT    411.74     0  03:22      0.84    0.79    0.94
  WS02006110WS02006113 CONDUIT    411.93     0  02:16      1.03    0.37    0.75
  WS02006111WS02006112 CONDUIT    413.96     0  02:30      1.83    0.20    0.65
  WS02006112WS02006115 CONDUIT    412.54     0  03:27      0.70    0.24    0.78
  WS02006113WS02006111 CONDUIT    423.16     0  02:41      2.25    0.51    0.40
  WS02006115WS02006116 CONDUIT    412.28     0  03:22      0.98    0.53    0.66
  WS02006116WS02004401 CONDUIT    412.32     0  03:22      1.00    0.57    0.74
  WS02006228WS02006109 CONDUIT    410.50     0  02:49      1.06    1.79    1.00
  WS02006229WS02006228 CONDUIT    410.50     0  02:49      1.13    1.36    1.00
  WS02006230WS02006229 CONDUIT    410.50     0  02:49      1.22    9.14    1.00
  WS02006231WS02006230 CONDUIT    400.49     0  02:29      1.37    6.07    0.77
  WS02006232WS02006231 CONDUIT    400.52     0  02:28      1.08    0.84    0.92
  WS02006234WS02006232 CONDUIT    400.49     0  02:28      1.40    0.81    1.00
  WS02006235WS02006234 CONDUIT    401.86     0  02:19      1.30    4.24    0.99
  WS02006238WS02006235 CONDUIT    402.79     0  02:11      1.48    0.90    1.00
  WS02006239WS02006238 CONDUIT    402.03     0  02:56      1.21    1.29    1.00
  WS02006240WS02006239 CONDUIT    401.53     0  02:17      1.30    1.26    1.00
  WS02006242WS02006240 CONDUIT    401.12     0  02:28      1.17    1.59    1.00
  WS02006243WS02006242 CONDUIT    400.90     0  02:33      1.43    0.86    1.00
  WS02006245WS02006243 CONDUIT    401.34     0  02:24      1.45    1.19    1.00
  WS02006247WS02006245 CONDUIT    403.02     0  02:28      1.43    3.20    1.00
  WS02006248WS02006247 CONDUIT    401.00     0  03:00      1.45    0.87    1.00
  WS02006249WS02006248 CONDUIT    404.33     0  01:47      1.38    2.21    1.00
  WS02006251WS02006249 CONDUIT    462.75     0  01:46      1.99    1.33    1.00
  WS02006252WS02006251 CONDUIT    402.83     0  01:45     24.55    1.48    1.00
  WS02006256WS02006235 CONDUIT    288.91     0  00:00      4.23    3.06    1.00
  WSF200WS02003060     CONDUIT    411.91     0  03:26      1.43    0.09    0.30
  YS02001580YS02001583 CONDUIT    115.77     0  02:08      0.66    0.45    1.00
  YS02001583YS02001586 CONDUIT    161.76     0  02:08      0.67    0.24    1.00
  YS02001586YS02001590 CONDUIT    318.01     0  02:23      1.27    0.56    1.00
  YS02001590YS02001593 CONDUIT    318.05     0  02:12      1.12    2.00    1.00
  YS02001593YS02001596 CONDUIT    318.15     0  02:16      1.63    0.50    1.00
  YS02001596YS02001600 CONDUIT    318.22     0  02:16      1.13    0.62    1.00
  YS02001600YS02001601 CONDUIT    317.96     0  02:23      1.12    0.55    1.00
  YS02001601YS02001602 CONDUIT    513.30     0  02:08      1.82    1.85    1.00
  YS02001602YS02001605 CONDUIT    512.86     0  02:08      1.81   10.85    1.00
  YS02001605YS02001607 CONDUIT    512.75     0  02:08      1.81    2.81    1.00
  YS02001607YS02001610 CONDUIT    511.53     0  02:07      0.65    0.49    1.00
  YS02001610YS02001613 CONDUIT    510.67     0  02:07      0.65    0.59    1.00
  YS02001613YS02001616 CONDUIT    509.80     0  02:08      0.65    0.44    1.00
  YS02001616YS02001619 CONDUIT    496.62     0  02:08      0.66    0.86    1.00
  YS02001619YS02001622 CONDUIT    930.66     0  02:10      1.18    1.37    1.00
  YS02001622YS02001625 CONDUIT    930.12     0  02:10      1.18    0.50    1.00
  YS02001625YS02001629 CONDUIT    928.92     0  02:10      1.18    0.44    1.00
  YS02001629YS02163301 CONDUIT    926.78     0  02:10      1.18    1.14    1.00
  YS02001633YS02163601 CONDUIT   1392.50     0  02:11      1.77    1.46    1.00
  YS02001641YS02001644 CONDUIT   1392.11     0  02:11      1.77    4.50    1.00
  YS02001644YS02001647 CONDUIT   1798.99     0  02:11      2.29    1.06    1.00
  YS02001647YS02001649 CONDUIT   1794.63     0  02:11      2.35    0.95    1.00
  YS02001649YS02001757 CONDUIT   1998.00     0  02:11      2.54    1.21    1.00
  YS02001652YS02001649 CONDUIT    603.32     0  02:15      0.77    0.30    1.00
  YS02001655YS02001652 CONDUIT    605.03     0  02:15      1.28    0.29    1.00
  YS02001658YS02001655 CONDUIT    604.51     0  02:15      1.91    0.26    1.00
  YS02001661YS02001658 CONDUIT    687.19     0  02:13      2.33    0.27    0.92
  YS02001664YS02001661 CONDUIT    561.11     0  02:14      2.31    0.18    0.59
  YS02001745YS02001748 CONDUIT    539.77     0  02:13      2.16    0.21    0.74
  YS02001748YS02001751 CONDUIT    356.39     0  02:16      1.66    0.18    1.00
  YS02001751YS02001754 CONDUIT    351.97     0  02:16      1.38    0.17    1.00
  YS02001754YS02001757 CONDUIT    353.27     0  02:16      0.47    0.14    1.00
  YS02001757CaochengTiaoxuchi CONDUIT   3142.50     0  02:14      4.00    1.36    1.00
  YS02001759YS02001757 CONDUIT   1141.88     0  02:12      1.45    0.81    1.00
  YS02001762YS02001759 CONDUIT    694.76     0  02:12      0.88    0.80    1.00
  YS02001765YS02001762 CONDUIT    682.96     0  02:12      0.87    0.64    1.00
  YS02001767YS02001765 CONDUIT    670.56     0  02:12      0.85    0.84    1.00
  YS02001770YS02001767 CONDUIT    659.72     0  02:12      0.84    2.61    1.00
  YS02001774YS02001770 CONDUIT    336.27     0  02:12      0.43    0.21    1.00
  YS02001779YS02001774 CONDUIT    342.27     0  02:12      0.44    0.17    1.00
  YS02001783YS02001784 CONDUIT    972.36     0  02:13      1.93    1.34    1.00
  YS02001784YS02001785 CONDUIT    972.96     0  02:13      1.94    2.26    1.00
  YS02001786YS02001788 CONDUIT    973.46     0  02:13      2.00    1.88    1.00
  YS02001788YS02001790 CONDUIT    973.78     0  02:13      2.03    0.72    1.00
  YS02001790YS02001791 CONDUIT    974.23     0  02:13      2.38    1.06    1.00
  YS02001791YS02001793 CONDUIT    975.17     0  02:13      4.48    0.42    1.00
  YS02001793JiankangQianchi CONDUIT    974.04     0  02:13      1.54    0.08    1.00
  YS02001882YS02001884 CONDUIT     54.59     0  02:09      0.11    0.06    1.00
  YS02001884YS02001887 CONDUIT     89.48     0  02:09      0.11    0.12    1.00
  YS02001887YS02001890 CONDUIT    492.41     0  02:13      0.63    0.84    1.00
  YS02001890YS02001895 CONDUIT    484.71     0  02:13      0.62    0.23    1.00
  YS02001895YS02001898 CONDUIT    484.42     0  02:13      0.62    0.84    1.00
  YS02001898YS02001901 CONDUIT    486.37     0  02:13      0.62    0.31    1.00
  YS02001901YS02001904 CONDUIT    485.06     0  02:13      0.62    0.75    1.00
  YS02001904YS02001907 CONDUIT    486.44     0  02:13      0.62    0.17    1.00
  YS02001907YS02006553 CONDUIT    672.36     0  02:23      0.75    0.79    1.00
  YS02001910YS02001907 CONDUIT    964.28     0  02:13      1.23    0.54    1.00
  YS02001915YS02001910 CONDUIT    963.81     0  02:13      1.23    0.48    1.00
  YS02001918YS02001915 CONDUIT    488.38     0  02:11      0.65    0.27    1.00
  YS02001920YS02001918 CONDUIT    449.67     0  02:13      0.64    0.43    1.00
  YS02001923YS02001920 CONDUIT    448.83     0  02:11      0.70    0.20    1.00
  YS02001926YS02001923 CONDUIT    472.08     0  02:11      0.95    0.67    1.00
  YS02001929YS02001926 CONDUIT    408.80     0  02:12      1.13    0.19    1.00
  YS02006553YS02006556 CONDUIT    672.86     0  02:23      0.86    0.58    1.00
  YS02006556YS02006558 CONDUIT    675.05     0  02:23      0.86    0.53    1.00
  YS02006558YS02006561 CONDUIT    972.20     0  02:12      3.44    2.15    1.00
  YS02006561YS02001783 CONDUIT    971.74     0  02:13      2.05    0.50    1.00
  YS02163301YS02001633 CONDUIT    925.05     0  02:10      1.18    0.87    1.00
  YS02163601YS02164001 CONDUIT   1392.77     0  02:11      1.77    1.23    1.00
  YS02164001YS02001641 CONDUIT   1392.00     0  02:11      1.77    1.90    1.00
  CC-R1                PUMP       683.00     0  00:00              1.00
  CC-R2                PUMP       683.00     0  00:00              1.00
  CC-S1                PUMP       200.00     0  00:00              1.00
  CC-S2                PUMP       200.00     0  00:00              1.00
  JK-R1                PUMP      1000.00     0  00:00              1.00
  JK-R2                PUMP      1000.00     0  00:00              1.00
  JK-S                 PUMP       300.00     0  00:00              1.00
  XR-1                 PUMP        95.00     0  00:00              1.00
  XR-2                 PUMP        95.00     0  00:00              1.00
  XR-3                 PUMP        95.00     0  00:00              1.00
  XR-4                 PUMP        95.00     0  00:00              1.00
  
  
  ***************************
  Flow Classification Summary
  ***************************
  
  -------------------------------------------------------------------------------------
                      Adjusted    ---------- Fraction of Time in Flow Class ---------- 
                       /Actual         Up    Down  Sub   Sup   Up    Down  Norm  Inlet 
  Conduit               Length    Dry  Dry   Dry   Crit  Crit  Crit  Crit  Ltd   Ctrl  
  -------------------------------------------------------------------------------------
  1                       1.00   0.00  0.00  0.00  0.00  1.00  0.00  0.00  0.20  0.00
  WS02001211WS02001212    1.00   0.00  0.00  0.00  1.00  0.00  0.00  0.00  0.00  0.00
  WS02001212WS02001213    1.00   0.00  0.00  0.00  0.36  0.00  0.64  0.00  0.00  0.00
  WS02001213WS02003059    1.00   0.00  0.00  0.00  0.99  0.00  0.00  0.00  0.00  0.00
  WS02003059WS02003060    1.00   0.00  0.00  0.00  1.00  0.00  0.00  0.00  0.00  0.00
  WS02003060WS02003069    1.00   0.00  0.00  0.00  0.99  0.01  0.00  0.00  0.00  0.00
  WS02003066WSF200        1.00   0.02  0.10  0.00  0.00  0.88  0.00  0.00  0.87  0.00
  WS02003067WS02003066    1.00   0.10  0.02  0.00  0.89  0.00  0.00  0.00  0.00  0.00
  WS02003069WS02003072    1.00   0.00  0.00  0.00  0.99  0.01  0.00  0.00  0.00  0.00
  WS02003072WS02003073    1.00   0.00  0.00  0.00  0.00  0.00  0.00  1.00  0.00  0.00
  WS02004138WS02004139    1.00   0.00  0.00  0.00  0.99  0.01  0.00  0.00  1.00  0.00
  WS02004139WS02001211    1.00   0.00  0.00  0.00  1.00  0.00  0.00  0.00  0.00  0.00
  WS02004401WS02004402    1.00   0.02  0.00  0.00  0.98  0.00  0.00  0.00  0.00  0.00
  WS02004402WS02004403    1.00   0.02  0.00  0.00  0.98  0.00  0.00  0.00  0.00  0.00
  WS02004403WS02004404    1.00   0.00  0.03  0.00  0.97  0.00  0.00  0.00  0.00  0.00
  WS02004404WS02004405    1.00   0.00  0.00  0.00  1.00  0.00  0.00  0.00  0.00  0.00
  WS02004405WS02004406    1.00   0.00  0.00  0.00  1.00  0.00  0.00  0.00  0.00  0.00
  WS02004406WS02004407    1.00   0.00  0.05  0.00  0.95  0.00  0.00  0.00  0.00  0.00
  WS02004407WS02004409    1.00   0.05  0.00  0.00  0.94  0.01  0.00  0.00  0.94  0.00
  WS02004409WS02004410    1.00   0.05  0.00  0.00  0.95  0.00  0.00  0.00  0.03  0.00
  WS02004410WS02004411    1.00   0.05  0.00  0.00  0.95  0.00  0.00  0.00  0.00  0.00
  WS02004411WS02004412    1.00   0.05  0.00  0.00  0.95  0.00  0.00  0.00  0.00  0.00
  WS02004412WS02004413    1.00   0.05  0.00  0.00  0.94  0.00  0.00  0.00  0.01  0.00
  WS02004413WS02003067    1.00   0.06  0.04  0.00  0.00  0.00  0.90  0.00  0.00  0.00
  WS02006109WS02006110    1.00   0.00  0.01  0.00  0.98  0.00  0.01  0.00  0.00  0.00
  WS02006110WS02006113    1.00   0.01  0.01  0.00  0.98  0.00  0.00  0.00  0.00  0.00
  WS02006111WS02006112    1.00   0.02  0.00  0.00  0.98  0.00  0.00  0.00  0.98  0.00
  WS02006112WS02006115    1.00   0.02  0.00  0.00  0.97  0.00  0.00  0.00  0.00  0.00
  WS02006113WS02006111    1.00   0.02  0.00  0.00  0.00  0.98  0.00  0.00  0.11  0.00
  WS02006115WS02006116    1.00   0.02  0.00  0.00  0.97  0.00  0.00  0.01  0.00  0.00
  WS02006116WS02004401    1.00   0.02  0.00  0.00  0.98  0.00  0.00  0.00  0.00  0.00
  WS02006228WS02006109    1.00   0.00  0.00  0.00  1.00  0.00  0.00  0.00  0.00  0.00
  WS02006229WS02006228    1.00   0.00  0.00  0.00  0.99  0.00  0.00  0.01  0.00  0.00
  WS02006230WS02006229    1.00   0.00  0.00  0.00  0.99  0.00  0.00  0.01  0.00  0.00
  WS02006231WS02006230    1.00   0.00  0.00  0.00  0.20  0.00  0.79  0.00  0.00  0.00
  WS02006232WS02006231    1.00   0.00  0.00  0.00  0.99  0.00  0.01  0.00  0.00  0.00
  WS02006234WS02006232    1.00   0.00  0.00  0.00  1.00  0.00  0.00  0.00  0.53  0.00
  WS02006235WS02006234    1.00   0.00  0.00  0.00  0.43  0.00  0.57  0.00  0.00  0.00
  WS02006238WS02006235    1.00   0.00  0.00  0.00  1.00  0.00  0.00  0.00  0.00  0.00
  WS02006239WS02006238    1.00   0.00  0.00  0.00  1.00  0.00  0.00  0.00  0.62  0.00
  WS02006240WS02006239    1.00   0.00  0.00  0.00  0.34  0.00  0.00  0.66  0.01  0.00
  WS02006242WS02006240    1.00   0.00  0.00  0.00  0.99  0.00  0.01  0.00  0.00  0.00
  WS02006243WS02006242    1.00   0.00  0.00  0.00  0.99  0.00  0.00  0.01  0.71  0.00
  WS02006245WS02006243    1.00   0.00  0.00  0.00  0.39  0.00  0.00  0.61  0.00  0.00
  WS02006247WS02006245    1.00   0.00  0.00  0.00  0.99  0.00  0.00  0.01  0.00  0.00
  WS02006248WS02006247    1.00   0.00  0.00  0.00  0.99  0.00  0.00  0.01  0.13  0.00
  WS02006249WS02006248    1.00   0.00  0.00  0.00  0.28  0.00  0.72  0.00  0.00  0.00
  WS02006251WS02006249    1.00   0.00  0.00  0.00  1.00  0.00  0.00  0.00  0.73  0.00
  WS02006252WS02006251    1.00   0.02  0.74  0.00  0.00  0.00  0.24  0.00  0.00  0.00
  WS02006256WS02006235    1.00   0.00  0.00  0.00  1.00  0.00  0.00  0.00  0.00  0.00
  WSF200WS02003060        1.00   0.00  0.02  0.00  0.98  0.00  0.00  0.00  0.70  0.00
  YS02001580YS02001583    1.00   0.26  0.57  0.00  0.16  0.00  0.00  0.00  0.67  0.00
  YS02001583YS02001586    1.00   0.49  0.30  0.00  0.21  0.00  0.00  0.00  0.67  0.00
  YS02001586YS02001590    1.00   0.13  0.00  0.00  0.39  0.04  0.00  0.45  0.35  0.00
  YS02001590YS02001593    1.00   0.13  0.01  0.00  0.09  0.00  0.78  0.00  0.00  0.00
  YS02001593YS02001596    1.00   0.14  0.00  0.00  0.63  0.05  0.00  0.18  0.59  0.00
  YS02001596YS02001600    1.00   0.14  0.00  0.00  0.78  0.01  0.00  0.07  0.02  0.00
  YS02001600YS02001601    1.00   0.13  0.01  0.00  0.86  0.00  0.00  0.00  0.05  0.00
  YS02001601YS02001602    1.00   0.13  0.01  0.00  0.86  0.00  0.00  0.00  0.00  0.00
  YS02001602YS02001605    1.00   0.14  0.00  0.00  0.86  0.00  0.00  0.00  0.00  0.00
  YS02001605YS02001607    1.00   0.14  0.00  0.00  0.86  0.00  0.00  0.00  0.00  0.00
  YS02001607YS02001610    1.00   0.13  0.01  0.00  0.86  0.00  0.00  0.00  0.02  0.00
  YS02001610YS02001613    1.00   0.13  0.00  0.00  0.87  0.00  0.00  0.00  0.01  0.00
  YS02001613YS02001616    1.00   0.13  0.00  0.00  0.87  0.00  0.00  0.00  0.01  0.00
  YS02001616YS02001619    1.00   0.13  0.00  0.00  0.87  0.00  0.00  0.00  0.00  0.00
  YS02001619YS02001622    1.00   0.13  0.00  0.00  0.87  0.00  0.00  0.00  0.00  0.00
  YS02001622YS02001625    1.00   0.13  0.00  0.00  0.87  0.00  0.00  0.00  0.05  0.00
  YS02001625YS02001629    1.00   0.13  0.05  0.00  0.76  0.00  0.06  0.00  0.00  0.00
  YS02001629YS02163301    1.00   0.16  0.01  0.00  0.83  0.00  0.00  0.00  0.00  0.00
  YS02001633YS02163601    1.00   0.00  0.01  0.00  0.99  0.00  0.00  0.00  0.15  0.00
  YS02001641YS02001644    1.00   0.00  0.01  0.00  0.99  0.00  0.00  0.00  0.00  0.00
  YS02001644YS02001647    1.00   0.00  0.18  0.00  0.82  0.00  0.00  0.00  0.00  0.00
  YS02001647YS02001649    1.00   0.00  0.18  0.00  0.77  0.05  0.00  0.00  0.02  0.00
  YS02001649YS02001757    1.00   0.00  0.00  0.00  0.95  0.05  0.00  0.00  0.19  0.00
  YS02001652YS02001649    1.00   0.00  0.00  0.00  0.96  0.04  0.00  0.00  0.19  0.00
  YS02001655YS02001652    1.00   0.00  0.00  0.00  0.75  0.01  0.00  0.24  0.01  0.00
  YS02001658YS02001655    1.00   0.00  0.14  0.00  0.73  0.12  0.00  0.00  0.07  0.00
  YS02001661YS02001658    1.00   0.14  0.00  0.00  0.73  0.13  0.00  0.00  0.06  0.00
  YS02001664YS02001661    1.00   0.13  0.00  0.00  0.81  0.06  0.00  0.00  0.86  0.00
  YS02001745YS02001748    1.00   0.00  0.00  0.00  0.72  0.00  0.00  0.28  0.01  0.00
  YS02001748YS02001751    1.00   0.00  0.00  0.00  0.87  0.13  0.00  0.00  0.13  0.00
  YS02001751YS02001754    1.00   0.00  0.00  0.00  0.74  0.00  0.00  0.26  0.01  0.00
  YS02001754YS02001757    1.00   0.00  0.00  0.00  1.00  0.00  0.00  0.00  0.25  0.00
  YS02001757CaochengTiaoxuchi    1.00   0.00  0.00  0.00  1.00  0.00  0.00  0.00  0.24  0.00
  YS02001759YS02001757    1.00   0.00  0.00  0.00  1.00  0.00  0.00  0.00  0.08  0.00
  YS02001762YS02001759    1.00   0.00  0.00  0.00  1.00  0.00  0.00  0.00  0.04  0.00
  YS02001765YS02001762    1.00   0.00  0.00  0.00  1.00  0.00  0.00  0.00  0.17  0.00
  YS02001767YS02001765    1.00   0.00  0.00  0.00  1.00  0.00  0.00  0.00  0.00  0.00
  YS02001770YS02001767    1.00   0.00  0.00  0.00  1.00  0.00  0.00  0.00  0.00  0.00
  YS02001774YS02001770    1.00   0.00  0.13  0.00  0.87  0.00  0.00  0.00  0.03  0.00
  YS02001779YS02001774    1.00   0.00  0.00  0.00  1.00  0.00  0.00  0.00  0.19  0.00
  YS02001783YS02001784    1.00   0.00  0.19  0.00  0.81  0.00  0.00  0.00  0.00  0.00
  YS02001784YS02001785    1.00   0.00  0.00  0.00  1.00  0.00  0.00  0.00  0.18  0.00
  YS02001786YS02001788    1.00   0.00  0.00  0.00  0.94  0.06  0.00  0.00  0.00  0.00
  YS02001788YS02001790    1.00   0.00  0.00  0.00  0.94  0.06  0.00  0.00  0.20  0.00
  YS02001790YS02001791    1.00   0.00  0.00  0.00  0.76  0.24  0.00  0.00  0.04  0.00
  YS02001791YS02001793    1.00   0.00  0.00  0.00  0.75  0.25  0.00  0.00  0.00  0.00
  YS02001793JiankangQianchi    1.00   0.00  0.00  0.00  0.93  0.06  0.00  0.00  0.22  0.00
  YS02001882YS02001884    1.00   0.15  0.01  0.00  0.84  0.00  0.00  0.00  0.00  0.00
  YS02001884YS02001887    1.00   0.06  0.05  0.00  0.89  0.00  0.00  0.00  0.00  0.00
  YS02001887YS02001890    1.00   0.00  0.00  0.00  0.97  0.00  0.03  0.00  0.00  0.00
  YS02001890YS02001895    1.00   0.00  0.17  0.00  0.83  0.00  0.00  0.00  0.00  0.00
  YS02001895YS02001898    1.00   0.17  0.00  0.00  0.81  0.00  0.02  0.00  0.00  0.00
  YS02001898YS02001901    1.00   0.17  0.00  0.00  0.83  0.00  0.00  0.00  0.01  0.00
  YS02001901YS02001904    1.00   0.17  0.00  0.00  0.83  0.00  0.00  0.00  0.00  0.00
  YS02001904YS02001907    1.00   0.00  0.17  0.00  0.83  0.00  0.00  0.00  0.00  0.00
  YS02001907YS02006553    1.00   0.00  0.02  0.00  0.98  0.00  0.00  0.00  0.00  0.00
  YS02001910YS02001907    1.00   0.00  0.00  0.00  0.97  0.00  0.00  0.03  0.12  0.00
  YS02001915YS02001910    1.00   0.00  0.00  0.00  0.97  0.03  0.00  0.00  0.16  0.00
  YS02001918YS02001915    1.00   0.00  0.01  0.00  0.98  0.02  0.00  0.00  0.78  0.00
  YS02001920YS02001918    1.00   0.00  0.01  0.00  0.99  0.00  0.00  0.00  0.00  0.00
  YS02001923YS02001920    1.00   0.00  0.00  0.00  1.00  0.00  0.00  0.00  0.95  0.00
  YS02001926YS02001923    1.00   0.00  0.07  0.00  0.04  0.00  0.89  0.00  0.00  0.00
  YS02001929YS02001926    1.00   0.00  0.13  0.00  0.87  0.00  0.00  0.00  0.84  0.00
  YS02006553YS02006556    1.00   0.01  0.00  0.00  0.99  0.00  0.00  0.00  0.03  0.00
  YS02006556YS02006558    1.00   0.00  0.00  0.00  1.00  0.00  0.00  0.00  0.00  0.00
  YS02006558YS02006561    1.00   0.19  0.00  0.00  0.05  0.76  0.00  0.00  0.19  0.00
  YS02006561YS02001783    1.00   0.19  0.00  0.00  0.74  0.07  0.00  0.00  0.73  0.00
  YS02163301YS02001633    1.00   0.00  0.16  0.00  0.84  0.00  0.00  0.00  0.00  0.00
  YS02163601YS02164001    1.00   0.00  0.08  0.00  0.92  0.00  0.00  0.00  0.00  0.00
  YS02164001YS02001641    1.00   0.01  0.07  0.00  0.92  0.00  0.00  0.00  0.06  0.00
  
  
  *************************
  Conduit Surcharge Summary
  *************************
  
  ----------------------------------------------------------------------------
                                                           Hours        Hours 
                         --------- Hours Full --------   Above Full   Capacity
  Conduit                Both Ends  Upstream  Dnstream   Normal Flow   Limited
  ----------------------------------------------------------------------------
  WS02003072WS02003073        0.01      0.01      0.01      2.31         0.01
  WS02004404WS02004405        0.01      0.01      0.01      2.16         0.01
  WS02006109WS02006110        0.01      0.01      1.51      0.01         0.01
  WS02006110WS02006113        0.01      0.01      1.49      0.01         0.01
  WS02006111WS02006112        0.01      0.01      1.59      0.01         0.01
  WS02006228WS02006109        1.45      1.51      1.45      1.79         1.45
  WS02006229WS02006228        1.44      1.47      1.44      1.68         1.44
  WS02006230WS02006229        1.59      1.64      1.59      2.43         1.59
  WS02006231WS02006230        0.01      0.01      0.01      2.23         0.01
  WS02006232WS02006231        0.01      0.01      1.52      0.01         0.01
  WS02006234WS02006232        1.42      1.42      1.52      0.01         0.01
  WS02006235WS02006234        0.01      0.01      1.46      2.10         0.01
  WS02006238WS02006235        1.47      1.47      1.52      0.01         0.01
  WS02006239WS02006238        1.48      1.51      1.48      1.74         1.48
  WS02006240WS02006239        1.46      1.48      1.46      1.76         1.46
  WS02006242WS02006240        1.47      1.47      1.61      1.83         0.01
  WS02006243WS02006242        1.49      1.49      1.56      0.01         0.01
  WS02006245WS02006243        1.48      1.49      1.48      1.82         1.48
  WS02006247WS02006245        1.48      1.51      1.48      1.92         1.48
  WS02006248WS02006247        1.49      1.49      1.50      0.01         0.01
  WS02006249WS02006248        1.48      1.48      1.50      1.91         0.01
  WS02006251WS02006249        1.49      1.50      1.49      1.89         1.49
  WS02006252WS02006251        1.92      1.92      1.92      1.92         0.01
  WS02006256WS02006235        2.16      2.16      3.00      0.02         0.01
  YS02001580YS02001583        0.33      0.33      0.37      0.01         0.01
  YS02001583YS02001586        0.34      0.34      0.48      0.01         0.01
  YS02001586YS02001590        0.49      0.49      0.55      0.01         0.01
  YS02001590YS02001593        0.56      0.56      0.58      0.56         0.01
  YS02001593YS02001596        0.57      0.57      0.69      0.01         0.01
  YS02001596YS02001600        0.76      0.76      1.02      0.01         0.01
  YS02001600YS02001601        1.12      1.12      6.14      0.01         0.01
  YS02001601YS02001602        6.08      6.08      6.16      0.77         0.01
  YS02001602YS02001605        6.06      6.06      6.08      1.99         0.01
  YS02001605YS02001607        6.02      6.06      6.02      1.05         0.94
  YS02001607YS02001610        0.65      0.65      0.71      0.01         0.01
  YS02001610YS02001613        0.64      0.64      0.71      0.01         0.01
  YS02001613YS02001616        0.57      0.57      0.64      0.01         0.01
  YS02001616YS02001619        0.56      0.56      0.57      0.01         0.01
  YS02001619YS02001622        0.56      0.56      0.56      0.48         0.40
  YS02001622YS02001625        0.56      0.56      5.52      0.01         0.01
  YS02001625YS02001629        0.50      0.50      5.52      0.01         0.01
  YS02001629YS02163301        5.90      5.90      5.90      0.05         0.11
  YS02001633YS02163601        5.91      5.91      5.91      0.28         0.26
  YS02001641YS02001644        5.87      5.88      5.87      1.17         0.86
  YS02001644YS02001647        5.27      5.27      5.87      0.03         0.01
  YS02001647YS02001649        5.27      5.27      5.82      0.01         0.01
  YS02001649YS02001757        5.81      5.82      5.81      0.18         0.13
  YS02001652YS02001649        5.55      5.55      5.82      0.01         0.01
  YS02001655YS02001652        0.18      0.18      4.61      0.01         0.01
  YS02001658YS02001655        0.03      0.03      0.18      0.01         0.01
  YS02001661YS02001658        0.01      0.01      0.03      0.01         0.01
  YS02001745YS02001748        0.01      0.01      0.01      0.01         0.01
  YS02001748YS02001751        0.01      0.01      0.07      0.01         0.01
  YS02001751YS02001754        0.07      0.07      0.63      0.01         0.01
  YS02001754YS02001757        5.30      5.30      5.81      0.01         0.01
  YS02001757CaochengTiaoxuchi        5.81      5.81      5.81      0.20         0.16
  YS02001759YS02001757        5.81      5.81      5.81      0.01         0.01
  YS02001762YS02001759        5.80      5.80      5.81      0.01         0.02
  YS02001765YS02001762        5.80      5.80      5.80      0.01         0.01
  YS02001767YS02001765        5.80      5.80      5.80      0.01         0.02
  YS02001770YS02001767        5.80      5.80      5.80      0.30         0.43
  YS02001774YS02001770        5.80      5.80      5.80      0.01         0.01
  YS02001779YS02001774        0.40      0.40      5.80      0.01         0.01
  YS02001783YS02001784        0.52      0.52      0.52      0.40         0.41
  YS02001784YS02001785        0.51      0.52      0.51      0.63         0.51
  YS02001786YS02001788        0.51      0.51      0.52      0.54         0.51
  YS02001788YS02001790        0.52      0.52      5.93      0.01         0.01
  YS02001790YS02001791        5.93      5.93      5.94      0.21         0.22
  YS02001791YS02001793        5.94      5.94      5.98      0.01         0.01
  YS02001793JiankangQianchi        5.97      5.97      6.24      0.01         0.01
  YS02001882YS02001884        0.31      0.31      0.32      0.01         0.01
  YS02001884YS02001887        0.34      0.34      0.35      0.01         0.01
  YS02001887YS02001890        0.36      0.36      0.37      0.01         0.01
  YS02001890YS02001895        0.30      0.30      0.39      0.01         0.01
  YS02001895YS02001898        0.30      0.30      0.30      0.01         0.01
  YS02001898YS02001901        0.31      0.31      0.34      0.01         0.01
  YS02001901YS02001904        0.33      0.33      0.34      0.01         0.01
  YS02001904YS02001907        0.33      0.33      0.54      0.01         0.01
  YS02001907YS02006553        0.65      0.65      0.70      0.01         0.01
  YS02001910YS02001907        0.38      0.38      0.53      0.01         0.01
  YS02001915YS02001910        0.31      0.31      0.38      0.01         0.01
  YS02001918YS02001915        0.23      0.23      0.31      0.01         0.01
  YS02001920YS02001918        0.23      0.23      0.24      0.01         0.01
  YS02001923YS02001920        0.18      0.18      0.24      0.01         0.01
  YS02001926YS02001923        0.01      0.01      0.01      0.01         0.01
  YS02001929YS02001926        0.01      0.01      0.01      0.01         0.01
  YS02006553YS02006556        0.46      0.46      0.55      0.01         0.01
  YS02006556YS02006558        0.50      0.50      0.56      0.01         0.01
  YS02006558YS02006561        0.34      0.45      0.34      0.60         0.34
  YS02006561YS02001783        0.26      0.26      0.52      0.01         0.01
  YS02163301YS02001633        5.90      5.90      5.91      0.01         0.01
  YS02163601YS02164001        5.88      5.88      5.91      0.07         0.01
  YS02164001YS02001641        5.88      5.88      5.88      0.54         0.48
  
  
  ***************
  Pumping Summary
  ***************
  
  ---------------------------------------------------------------------------------------------------------
                                                  Min       Avg       Max     Total     Power    % Time Off
                        Percent   Number of      Flow      Flow      Flow    Volume     Usage    Pump Curve
  Pump                 Utilized   Start-Ups       LPS       LPS       LPS  10^6 ltr     Kw-hr    Low   High
  ---------------------------------------------------------------------------------------------------------
  CC-R1                    1.06           1      0.00    683.00    683.00     0.208      3.51    0.0  100.0
  CC-R2                    1.06           1      0.00    683.00    683.00     0.208      3.51    0.0  100.0
  CC-S1                   24.05           3      0.00    200.00    200.00     1.385      6.98    0.0   39.2
  CC-S2                   24.05           3      0.00    200.00    200.00     1.385      6.98    0.0   39.2
  JK-R1                    0.97           2      0.00    347.46   1000.00     0.078      0.47    0.0    0.0
  JK-R2                    0.97           2      0.00    347.46   1000.00     0.078      0.47    0.0    0.0
  JK-S                     0.97           2      0.00    104.30    300.00     0.023      0.44    0.0    0.0
  XR-1                   100.00           1      0.00     95.00     95.00     2.736     68.18    0.0    0.0
  XR-2                   100.00           1      0.00     95.00     95.00     2.736     68.18    0.0    0.0
  XR-3                   100.00           1      0.00     95.00     95.00     2.736     68.18    0.0    0.0
  XR-4                   100.00           1      0.00     95.00     95.00     2.736     68.18    0.0    0.0
  

  Analysis begun on:  Wed Nov  5 16:28:51 2025
  Analysis ended on:  Wed Nov  5 16:28:53 2025
  Total elapsed time: 00:00:02