
  EPA STORM WATER MANAGEMENT MODEL - VERSION 5.2 (Build 5.2.4)
  PYSWMM TOOLKIT API - VERSION v1.0 (2023-11-27)
  ------------------------------------------------------------

  WARNING 04: minimum elevation drop used for Conduit WS02004404WS02004405
  WARNING 03: negative offset ignored for Link YS02001904YS02001907
  
  ****************
  Analysis Options
  ****************
  Flow Units ............... LPS
  Process Models:
    Rainfall/Runoff ........ YES
    RDII ................... NO
    Snowmelt ............... NO
    Groundwater ............ NO
    Flow Routing ........... YES
    Ponding Allowed ........ NO
    Water Quality .......... NO
  Infiltration Method ...... HORTON
  Flow Routing Method ...... DYNWAVE
  Surcharge Method ......... EXTRAN
  Starting Date ............ 08/28/2015 08:00:00
  Ending Date .............. 08/28/2015 16:00:00
  Antecedent Dry Days ...... 8.0
  Report Time Step ......... 00:01:00
  Wet Time Step ............ 00:01:00
  Dry Time Step ............ 00:01:00
  Routing Time Step ........ 30.00 sec
  Variable Time Step ....... YES
  Maximum Trials ........... 8
  Number of Threads ........ 4
  Head Tolerance ........... 0.001500 m
  
  
  **************************        Volume         Depth
  Runoff Quantity Continuity     hectare-m            mm
  **************************     ---------       -------
  Initial LID Storage ......         0.049         1.488
  Total Precipitation ......         1.840        55.471
  Evaporation Loss .........         0.000         0.000
  Infiltration Loss ........         0.074         2.224
  Surface Runoff ...........         1.353        40.792
  Final Storage ............         0.463        13.960
  Continuity Error (%) .....        -0.032
  
  
  **************************        Volume        Volume
  Flow Routing Continuity        hectare-m      10^6 ltr
  **************************     ---------     ---------
  Dry Weather Inflow .......         0.602         6.020
  Wet Weather Inflow .......         1.353        13.534
  Groundwater Inflow .......         0.000         0.000
  RDII Inflow ..............         0.000         0.000
  External Inflow ..........         0.105         1.045
  External Outflow .........         1.495        14.949
  Flooding Loss ............         0.499         4.992
  Evaporation Loss .........         0.000         0.000
  Exfiltration Loss ........         0.000         0.000
  Initial Stored Volume ....         0.303         3.031
  Final Stored Volume ......         0.826         8.255
  Continuity Error (%) .....       -19.327
  
  
  *************************
  Highest Continuity Errors
  *************************
  Node YS02001774 (34.27%)
  Node YS02001583 (-14.61%)
  Node WS02006256 (-5.95%)
  Node YS02001884 (5.12%)
  Node YS02001754 (4.23%)
  
  
  ***************************
  Time-Step Critical Elements
  ***************************
  Link WS02001212WS02001213 (36.86%)
  Link WS02006235WS02006234 (22.03%)
  Link WS02006238WS02006235 (14.64%)
  Link YS02006556YS02006558 (6.64%)
  Link WS02003066WSF200 (5.74%)
  
  
  ********************************
  Highest Flow Instability Indexes
  ********************************
  Link WS02006238WS02006235 (40)
  Link WS02006113WS02006111 (39)
  Link WS02006256WS02006235 (36)
  Link WS02006111WS02006112 (31)
  Link WS02006249WS02006248 (31)
  
  
  *********************************
  Most Frequent Nonconverging Nodes
  *********************************
  Node CC-1 (18.40%)
  Node CC-2 (18.40%)
  Node JK-1 (18.40%)
  Node JK-2 (18.40%)
  Node WSC (18.40%)
  
  
  *************************
  Routing Time Step Summary
  *************************
  Minimum Time Step           :     0.06 sec
  Average Time Step           :     3.93 sec
  Maximum Time Step           :     6.46 sec
  % of Time in Steady State   :     0.00
  Average Iterations per Step :     3.84
  % of Steps Not Converging   :    18.40
  Time Step Frequencies       :
     30.000 - 13.228 sec      :     0.00 %
     13.228 -  5.833 sec      :    35.52 %
      5.833 -  2.572 sec      :    39.87 %
      2.572 -  1.134 sec      :    18.34 %
      1.134 -  0.500 sec      :     6.27 %
  
  
  ***************************
  Subcatchment Runoff Summary
  ***************************
  
  ------------------------------------------------------------------------------------------------------------------------------
                            Total      Total      Total      Total     Imperv       Perv      Total       Total     Peak  Runoff
                           Precip      Runon       Evap      Infil     Runoff     Runoff     Runoff      Runoff   Runoff   Coeff
  Subcatchment                 mm         mm         mm         mm         mm         mm         mm    10^6 ltr      LPS
  ------------------------------------------------------------------------------------------------------------------------------
  sub60                     55.47       0.00       0.00       1.34      36.75       3.80      40.55        0.53   399.61   0.731
  sub61                     55.47       0.00       0.00       2.05      36.72       5.66      42.38        0.78   578.38   0.764
  sub62                     55.47       0.00       0.00       0.91      39.14       2.58      41.72        1.14   783.32   0.752
  sub63                     55.47       0.00       0.00       3.73      31.45       9.44      40.89        0.93   633.93   0.737
  sub64                     55.47       0.00       0.00       1.80      35.81       4.69      40.49        0.97   628.73   0.730
  sub65                     55.47       0.00       0.00       1.65      38.64       4.28      42.92        1.18   729.07   0.774
  sub66                     55.47       0.00       0.00       4.33      30.40       8.42      38.83        1.81   908.42   0.700
  sub67                     55.47       0.00       0.00       0.91      40.13       2.67      42.80        0.80   624.73   0.772
  sub68                     55.47       0.00       0.00       1.58      35.44       4.34      39.78        1.09   785.00   0.717
  sub69                     55.47       0.00       0.00       1.41      37.29       5.18      42.47        1.57   950.09   0.766
  sub70                     55.47       0.00       0.00       4.73      29.87      10.71      40.58        1.17   523.67   0.732
  sub71                     55.47       0.00       0.00       0.84      35.56       2.33      37.89        0.99   640.72   0.683
  sub72                     55.47       0.00       0.00       0.80      38.40       2.17      40.57        0.56   323.10   0.731
  

  ***********************
  LID Performance Summary
  ***********************

  --------------------------------------------------------------------------------------------------------------------
                                         Total      Evap     Infil   Surface    Drain    Initial     Final  Continuity
                                        Inflow      Loss      Loss   Outflow   Outflow   Storage   Storage       Error
  Subcatchment      LID Control             mm        mm        mm        mm        mm        mm        mm           %
  --------------------------------------------------------------------------------------------------------------------
  sub60             GreenRoof            55.47      0.00      0.00      0.00      0.00      7.05     62.54       -0.04
  sub61             GreenRoof            55.47      0.00      0.00      0.00      0.00      7.05     62.54       -0.04
  sub62             GreenRoof            55.47      0.00      0.00      0.00      0.00      7.05     62.54       -0.04
  sub63             GreenRoof            55.47      0.00      0.00      0.00      0.00      7.05     62.54       -0.04
  sub64             GreenRoof            55.47      0.00      0.00      0.00      0.00      7.05     62.54       -0.04
  sub65             GreenRoof            55.47      0.00      0.00      0.00      0.00      7.05     62.54       -0.04
  sub66             GreenRoof            55.47      0.00      0.00      0.00      0.00      7.05     62.54       -0.04
  sub67             GreenRoof            55.47      0.00      0.00      0.00      0.00      7.05     62.54       -0.04
  sub68             GreenRoof            55.47      0.00      0.00      0.00      0.00      7.05     62.54       -0.04
  sub69             GreenRoof            55.47      0.00      0.00      0.00      0.00      7.05     62.54       -0.04
  sub70             GreenRoof            55.47      0.00      0.00      0.00      0.00      7.05     62.54       -0.04
  sub71             GreenRoof            55.47      0.00      0.00      0.00      0.00      7.05     62.54       -0.04
  sub72             GreenRoof            55.47      0.00      0.00      0.00      0.00      7.05     62.54       -0.04
  
  ******************
  Node Depth Summary
  ******************
  
  ---------------------------------------------------------------------------------
                                 Average  Maximum  Maximum  Time of Max    Reported
                                   Depth    Depth      HGL   Occurrence   Max Depth
  Node                 Type       Meters   Meters   Meters  days hr:min      Meters
  ---------------------------------------------------------------------------------
  WS02001211           JUNCTION     0.76     0.78     5.62     0  02:57        0.78
  WS02001212           JUNCTION     0.46     0.49     5.55     0  02:55        0.49
  WS02001213           JUNCTION     0.68     0.73     5.49     0  02:55        0.73
  WS02003059           JUNCTION     0.73     0.78     5.47     0  02:54        0.78
  WS02003060           JUNCTION     0.38     0.47     5.41     0  02:36        0.47
  WS02003066           JUNCTION     0.15     0.27     5.82     0  02:54        0.27
  WS02003067           JUNCTION     0.42     0.65     5.97     0  02:35        0.65
  WS02003069           JUNCTION     0.42     0.54     5.12     0  02:55        0.54
  WS02003072           JUNCTION     0.49     0.60     4.97     0  02:55        0.60
  WS02003073           JUNCTION     0.29     0.37     4.43     0  02:56        0.37
  WS02004138           JUNCTION     0.19     0.20     7.45     0  00:00        0.19
  WS02004139           JUNCTION     0.71     0.73     5.64     0  02:57        0.73
  WS02004401           JUNCTION     0.51     0.75     6.75     0  02:46        0.75
  WS02004402           JUNCTION     0.54     0.78     6.74     0  03:22        0.78
  WS02004403           JUNCTION     0.56     0.80     6.73     0  02:46        0.80
  WS02004404           JUNCTION     0.64     0.88     6.73     0  02:46        0.88
  WS02004405           JUNCTION     0.63     0.87     6.72     0  02:46        0.87
  WS02004406           JUNCTION     0.65     0.88     6.71     0  02:46        0.88
  WS02004407           JUNCTION     0.13     0.26     6.57     0  02:47        0.26
  WS02004409           JUNCTION     0.30     0.57     6.34     0  02:47        0.57
  WS02004410           JUNCTION     0.33     0.59     6.31     0  02:52        0.59
  WS02004411           JUNCTION     0.35     0.61     6.29     0  02:52        0.61
  WS02004412           JUNCTION     0.37     0.62     6.26     0  02:53        0.62
  WS02004413           JUNCTION     0.53     0.79     6.26     0  02:53        0.79
  WS02006109           JUNCTION     0.56     0.83     7.45     0  02:21        0.83
  WS02006110           JUNCTION     0.57     0.82     7.41     0  02:21        0.82
  WS02006111           JUNCTION     0.14     0.25     6.96     0  02:08        0.25
  WS02006112           JUNCTION     0.65     0.93     6.82     0  03:21        0.93
  WS02006113           JUNCTION     0.21     0.39     7.29     0  02:41        0.39
  WS02006115           JUNCTION     0.39     0.65     6.78     0  02:45        0.65
  WS02006116           JUNCTION     0.47     0.73     6.77     0  03:22        0.73
  WS02006228           JUNCTION     0.54     0.84     7.49     0  02:32        0.84
  WS02006229           JUNCTION     0.51     0.82     7.52     0  02:32        0.82
  WS02006230           JUNCTION     0.50     0.86     7.60     0  02:32        0.86
  WS02006231           JUNCTION     0.30     0.60     7.72     0  02:45        0.60
  WS02006232           JUNCTION     0.41     0.75     7.79     0  01:54        0.75
  WS02006234           JUNCTION     0.33     0.71     7.87     0  02:26        0.71
  WS02006235           JUNCTION     0.37     0.76     7.93     0  02:10        0.76
  WS02006238           JUNCTION     0.39     0.81     7.95     0  02:22        0.81
  WS02006239           JUNCTION     0.37     0.81     8.02     0  02:07        0.80
  WS02006240           JUNCTION     0.36     0.79     8.08     0  02:25        0.79
  WS02006242           JUNCTION     0.42     0.90     8.17     0  01:50        0.90
  WS02006243           JUNCTION     0.37     0.84     8.26     0  02:09        0.84
  WS02006245           JUNCTION     0.37     0.86     8.34     0  01:50        0.85
  WS02006247           JUNCTION     0.39     0.93     8.43     0  02:03        0.93
  WS02006248           JUNCTION     0.37     0.86     8.45     0  01:52        0.85
  WS02006249           JUNCTION     0.39     0.89     8.49     0  02:20        0.89
  WS02006251           JUNCTION     0.39     0.91     8.58     0  02:03        0.91
  WS02006252           JUNCTION     0.26     1.50     9.74     0  00:00        0.59
  WS02006256           JUNCTION     0.60     2.35     9.28     0  00:00        2.35
  WSF200               JUNCTION     0.12     0.25     5.48     0  02:36        0.25
  YS02001580           JUNCTION     0.09     1.05     9.59     0  01:47        0.77
  YS02001583           JUNCTION     0.12     1.14     9.64     0  01:47        0.81
  YS02001586           JUNCTION     0.20     1.13     9.30     0  01:47        1.13
  YS02001590           JUNCTION     0.30     1.40     9.26     0  01:45        1.37
  YS02001593           JUNCTION     0.24     1.37     9.23     0  01:45        1.28
  YS02001596           JUNCTION     0.53     1.70     9.12     0  01:47        1.65
  YS02001600           JUNCTION     0.76     1.87     9.00     0  01:47        1.87
  YS02001601           JUNCTION     1.00     2.06     8.90     0  01:45        2.06
  YS02001602           JUNCTION     0.91     1.87     8.77     0  01:47        1.87
  YS02001605           JUNCTION     0.88     1.78     8.68     0  01:47        1.78
  YS02001607           JUNCTION     0.87     1.65     8.49     0  01:52        1.65
  YS02001610           JUNCTION     0.91     1.68     8.48     0  01:47        1.68
  YS02001613           JUNCTION     0.87     1.69     8.53     0  01:47        1.65
  YS02001616           JUNCTION     0.81     1.61     8.52     0  01:47        1.59
  YS02001619           JUNCTION     0.79     1.61     8.54     0  01:47        1.58
  YS02001622           JUNCTION     0.80     1.62     8.52     0  01:47        1.56
  YS02001625           JUNCTION     1.05     1.78     8.38     0  01:47        1.78
  YS02001629           JUNCTION     1.07     1.85     8.40     0  01:47        1.85
  YS02001633           JUNCTION     1.15     2.04     8.50     0  01:49        2.02
  YS02001641           JUNCTION     1.14     1.96     8.39     0  01:49        1.95
  YS02001644           JUNCTION     1.13     1.92     8.35     0  01:49        1.92
  YS02001647           JUNCTION     0.95     1.76     8.37     0  01:50        1.70
  YS02001649           JUNCTION     1.11     1.95     8.34     0  01:50        1.88
  YS02001652           JUNCTION     0.94     1.79     8.38     0  01:50        1.72
  YS02001655           JUNCTION     0.74     1.72     8.57     0  01:50        1.50
  YS02001658           JUNCTION     0.52     1.63     8.77     0  01:50        1.24
  YS02001661           JUNCTION     0.33     1.20     8.61     0  01:51        1.00
  YS02001664           JUNCTION     0.06     0.59     8.51     0  01:50        0.59
  YS02001745           JUNCTION     0.21     0.96     8.48     0  01:50        0.61
  YS02001748           JUNCTION     0.55     1.61     8.68     0  01:50        1.07
  YS02001751           JUNCTION     0.70     1.71     8.59     0  01:49        1.27
  YS02001754           JUNCTION     0.91     1.81     8.42     0  01:50        1.54
  YS02001757           JUNCTION     1.20     2.02     8.28     0  01:50        1.86
  YS02001759           JUNCTION     1.11     1.97     8.34     0  01:50        1.82
  YS02001762           JUNCTION     1.08     1.97     8.37     0  01:50        1.80
  YS02001765           JUNCTION     1.04     1.92     8.37     0  01:50        1.77
  YS02001767           JUNCTION     1.02     2.03     8.52     0  01:49        1.78
  YS02001770           JUNCTION     1.02     1.95     8.44     0  01:49        1.85
  YS02001774           JUNCTION     1.08     2.05     8.47     0  01:49        1.94
  YS02001779           JUNCTION     0.85     1.68     8.37     0  01:49        1.68
  YS02001783           JUNCTION     0.49     2.03     8.18     0  01:50        2.03
  YS02001784           JUNCTION     0.54     1.97     8.04     0  01:50        1.97
  YS02001786           JUNCTION     0.54     1.82     7.85     0  01:49        1.75
  YS02001788           JUNCTION     0.55     1.65     7.62     0  01:49        1.51
  YS02001790           JUNCTION     0.79     1.75     7.40     0  01:49        1.56
  YS02001791           JUNCTION     0.89     1.71     7.18     0  01:49        1.40
  YS02001793           JUNCTION     1.35     1.95     6.78     0  01:49        1.85
  YS02001882           JUNCTION     0.31     1.83     8.55     0  01:47        1.64
  YS02001884           JUNCTION     0.40     1.80     8.42     0  01:48        1.74
  YS02001887           JUNCTION     0.47     1.85     8.39     0  01:48        1.81
  YS02001890           JUNCTION     0.50     1.81     8.32     0  01:48        1.81
  YS02001895           JUNCTION     0.28     1.64     8.39     0  01:48        1.56
  YS02001898           JUNCTION     0.29     1.69     8.43     0  01:48        1.69
  YS02001901           JUNCTION     0.40     1.69     8.30     0  01:49        1.67
  YS02001904           JUNCTION     0.38     1.65     8.28     0  01:48        1.64
  YS02001907           JUNCTION     0.69     1.96     8.25     0  01:48        1.96
  YS02001910           JUNCTION     0.49     1.99     8.50     0  01:49        1.85
  YS02001915           JUNCTION     0.31     1.94     8.65     0  01:49        1.72
  YS02001918           JUNCTION     0.16     1.81     8.88     0  01:49        1.42
  YS02001920           JUNCTION     0.24     2.14     9.15     0  01:49        1.50
  YS02001923           JUNCTION     0.12     2.03     9.29     0  01:49        1.26
  YS02001926           JUNCTION     0.16     1.90     9.35     0  01:49        1.11
  YS02001929           JUNCTION     0.08     1.78     9.47     0  01:49        0.91
  YS02006553           JUNCTION     0.69     2.12     8.40     0  01:50        2.12
  YS02006556           JUNCTION     0.66     2.29     8.60     0  01:50        2.29
  YS02006558           JUNCTION     0.71     2.40     8.66     0  01:50        2.40
  YS02006561           JUNCTION     0.17     1.60     8.26     0  01:50        1.60
  YS02163301           JUNCTION     1.10     1.93     8.45     0  01:49        1.92
  YS02163601           JUNCTION     1.19     2.06     8.46     0  01:49        2.04
  YS02164001           JUNCTION     1.12     1.97     8.43     0  01:49        1.96
  CC-1                 OUTFALL      0.00     0.00     0.00     0  00:00        0.00
  CC-2                 OUTFALL      0.00     0.00     0.00     0  00:00        0.00
  JK-1                 OUTFALL      0.00     0.00     0.00     0  00:00        0.00
  JK-2                 OUTFALL      0.00     0.00     0.00     0  00:00        0.00
  WSC                  OUTFALL      0.29     0.37     1.04     0  02:56        0.37
  CC-storage           STORAGE      1.78     2.29     7.79     0  08:00        2.29
  JK-storage           STORAGE      4.53     5.80     6.60     0  01:49        5.80
  XR-storage           STORAGE      0.32     5.00     3.00     0  00:00        4.91
  
  
  *******************
  Node Inflow Summary
  *******************
  
  -------------------------------------------------------------------------------------------------
                                  Maximum  Maximum                  Lateral       Total        Flow
                                  Lateral    Total  Time of Max      Inflow      Inflow     Balance
                                   Inflow   Inflow   Occurrence      Volume      Volume       Error
  Node                 Type           LPS      LPS  days hr:min    10^6 ltr    10^6 ltr     Percent
  -------------------------------------------------------------------------------------------------
  WS02001211           JUNCTION      7.35   389.13     0  03:36       0.212        11.1       0.348
  WS02001212           JUNCTION      0.00   390.86     0  03:36           0        11.1       0.207
  WS02001213           JUNCTION      0.00   392.63     0  03:35           0        11.1       0.238
  WS02003059           JUNCTION      0.00   395.67     0  03:35           0          11       0.328
  WS02003060           JUNCTION     16.53   816.04     0  02:36       0.476        14.4       0.149
  WS02003066           JUNCTION      0.00   411.84     0  02:54           0        2.95       0.040
  WS02003067           JUNCTION      0.00   411.85     0  02:53           0        2.96       0.136
  WS02003069           JUNCTION      0.32   816.35     0  02:54     0.00922        14.4       0.158
  WS02003072           JUNCTION      0.00   816.35     0  02:55           0        14.4       0.206
  WS02003073           JUNCTION      1.82   818.17     0  02:55      0.0524        14.4       0.221
  WS02004138           JUNCTION      0.00   380.00     0  00:00           0        10.9       0.059
  WS02004139           JUNCTION      0.32   395.52     0  00:00     0.00924        10.9       0.407
  WS02004401           JUNCTION      0.00   412.13     0  03:22           0        3.05       0.325
  WS02004402           JUNCTION      0.00   411.97     0  03:22           0        3.04       0.331
  WS02004403           JUNCTION      0.00   412.03     0  03:22           0        3.03       0.325
  WS02004404           JUNCTION      0.16   412.07     0  02:46     0.00467        3.03       0.271
  WS02004405           JUNCTION      0.04   412.10     0  02:46      0.0011        3.02       0.405
  WS02004406           JUNCTION      0.00   412.21     0  03:23           0        3.01       0.678
  WS02004407           JUNCTION      0.00   412.00     0  02:47           0        2.99       0.030
  WS02004409           JUNCTION      0.00   411.94     0  02:47           0        2.99       0.074
  WS02004410           JUNCTION      0.00   411.90     0  02:10           0        2.99       0.130
  WS02004411           JUNCTION      0.00   411.89     0  02:36           0        2.98       0.171
  WS02004412           JUNCTION      0.00   411.88     0  02:35           0        2.98       0.234
  WS02004413           JUNCTION      0.00   411.89     0  02:35           0        2.97       0.422
  WS02006109           JUNCTION      1.23   411.73     0  02:46      0.0354         3.1       0.251
  WS02006110           JUNCTION      0.00   411.73     0  02:46           0        3.09       0.201
  WS02006111           JUNCTION      0.00   423.75     0  02:20           0        3.08       0.031
  WS02006112           JUNCTION      0.00   413.55     0  02:08           0        3.08       0.568
  WS02006113           JUNCTION      0.00   411.94     0  02:08           0        3.08       0.041
  WS02006115           JUNCTION      0.00   412.23     0  03:22           0        3.06       0.203
  WS02006116           JUNCTION      0.00   412.18     0  03:22           0        3.06       0.148
  WS02006228           JUNCTION      0.00   410.50     0  02:45           0        3.07       0.091
  WS02006229           JUNCTION      0.00   410.51     0  02:45           0        3.07       0.145
  WS02006230           JUNCTION     10.28   410.65     0  02:27       0.296        3.08       0.193
  WS02006231           JUNCTION      0.00   400.38     0  02:27           0        2.78      -0.113
  WS02006232           JUNCTION      0.00   400.39     0  02:27           0        2.79       0.295
  WS02006234           JUNCTION      0.00   401.35     0  01:54           0        2.78      -0.197
  WS02006235           JUNCTION      0.00   401.93     0  02:44           0         2.8       0.260
  WS02006238           JUNCTION      0.00   402.59     0  02:40           0        2.77      -0.228
  WS02006239           JUNCTION      0.00   401.10     0  01:54           0        2.76      -0.175
  WS02006240           JUNCTION      0.00   400.90     0  02:06           0        2.76      -0.054
  WS02006242           JUNCTION      0.00   401.03     0  02:03           0        2.75       0.006
  WS02006243           JUNCTION      0.00   401.93     0  02:15           0        2.76       0.034
  WS02006245           JUNCTION      0.00   403.68     0  02:23           0        2.76       0.335
  WS02006247           JUNCTION      0.00   400.96     0  02:03           0        2.76       0.015
  WS02006248           JUNCTION      0.00   401.17     0  02:07           0        2.77       0.092
  WS02006249           JUNCTION      0.00   458.97     0  00:00           0        2.77       0.240
  WS02006251           JUNCTION      0.08   401.17     0  03:04     0.00222        2.77      -0.005
  WS02006252           JUNCTION      0.00   400.00     0  00:00           0        2.77      -0.034
  WS02006256           JUNCTION      0.00   300.00     0  00:00           0      0.0242      -5.613
  WSF200               JUNCTION      0.00   411.84     0  02:54           0        2.95       0.020
  YS02001580           JUNCTION      0.00   173.50     0  01:47           0     0.00449      -4.400
  YS02001583           JUNCTION      0.00   253.07     0  01:47           0      0.0145     -12.747
  YS02001586           JUNCTION    523.67   523.69     0  01:52        1.17        1.18       0.142
  YS02001590           JUNCTION      0.00   318.12     0  01:55           0        1.03       0.017
  YS02001593           JUNCTION      0.00   318.05     0  01:55           0        1.03       0.049
  YS02001596           JUNCTION      0.00   318.06     0  02:03           0        1.03       0.358
  YS02001600           JUNCTION      0.00   318.13     0  01:55           0        1.03       0.792
  YS02001601           JUNCTION    950.09  1267.79     0  01:51        1.57        2.59       0.339
  YS02001602           JUNCTION      0.00   575.15     0  01:46           0         1.8       0.509
  YS02001605           JUNCTION      0.00   574.80     0  01:46           0         1.7       0.817
  YS02001607           JUNCTION      0.00   574.62     0  01:46           0        1.69       1.297
  YS02001610           JUNCTION      0.00   533.94     0  01:46           0        1.68       1.385
  YS02001613           JUNCTION      0.00   512.91     0  01:47           0        1.38       1.791
  YS02001616           JUNCTION      0.00   491.76     0  01:47           0        1.36       1.617
  YS02001619           JUNCTION    908.42   974.65     0  01:47        1.81        3.14       0.696
  YS02001622           JUNCTION      0.00   929.15     0  01:47           0         3.1       0.950
  YS02001625           JUNCTION      0.00  1004.28     0  01:52           0        3.08       1.457
  YS02001629           JUNCTION      0.00   904.78     0  01:47           0        2.56       0.886
  YS02001633           JUNCTION    729.27  1437.86     0  01:48        1.19        3.67       0.888
  YS02001641           JUNCTION      0.00  1436.60     0  01:48           0        3.57       0.602
  YS02001644           JUNCTION    628.77  1937.60     0  01:48       0.974        4.52       0.585
  YS02001647           JUNCTION      0.00  1939.95     0  01:48           0        4.46       0.644
  YS02001649           JUNCTION      0.00  2228.06     0  01:49           0        5.31       0.716
  YS02001652           JUNCTION      0.00   792.76     0  01:51           0        0.91       2.497
  YS02001655           JUNCTION      0.15   792.63     0  01:51     0.00443       0.932       2.267
  YS02001658           JUNCTION      0.00   790.42     0  01:51           0       0.958       1.533
  YS02001661           JUNCTION      0.00   756.75     0  01:51           0       0.955       0.773
  YS02001664           JUNCTION    633.93   633.93     0  01:50       0.928       0.928      -0.045
  YS02001745           JUNCTION    399.61   619.43     0  01:50       0.533        0.58       0.981
  YS02001748           JUNCTION      0.04   687.95     0  01:49      0.0013       0.601       2.031
  YS02001751           JUNCTION      0.01   560.04     0  01:50    0.000317       0.565       3.997
  YS02001754           JUNCTION      0.26   563.84     0  01:50     0.00749       0.552       4.417
  YS02001757           JUNCTION      0.00  3449.58     0  01:51           0        7.53       1.296
  YS02001759           JUNCTION    578.42  1394.04     0  01:49       0.779        1.79       1.284
  YS02001762           JUNCTION      0.00   815.92     0  01:49           0        1.04       2.091
  YS02001765           JUNCTION      0.00   811.71     0  01:49           0        1.06       2.381
  YS02001767           JUNCTION      0.54   806.95     0  01:49      0.0154        1.09       3.354
  YS02001770           JUNCTION    783.47   792.25     0  01:49        1.15        1.17       2.753
  YS02001774           JUNCTION      0.00   496.79     0  01:49           0       0.074      52.144
  YS02001779           JUNCTION      0.01   496.04     0  01:49    0.000144      0.0333      69.581
  YS02001783           JUNCTION      0.00  1158.27     0  01:49           0         2.9       0.244
  YS02001784           JUNCTION      1.06  1160.22     0  01:49      0.0305        2.92       0.367
  YS02001786           JUNCTION      0.06  1161.75     0  01:49     0.00162        2.91       0.464
  YS02001788           JUNCTION      0.07  1168.22     0  01:49     0.00204         2.9       0.461
  YS02001790           JUNCTION      0.15  1162.92     0  01:49     0.00446        2.89       0.595
  YS02001791           JUNCTION      0.00  1166.08     0  01:49           0        2.88       0.496
  YS02001793           JUNCTION      0.00  1125.90     0  01:49           0        2.86       0.563
  YS02001882           JUNCTION      0.00   103.27     0  01:47           0      0.0124       4.938
  YS02001884           JUNCTION      0.00   144.24     0  01:47           0       0.048       5.396
  YS02001887           JUNCTION    625.18   625.18     0  01:50       0.809       0.842       0.521
  YS02001890           JUNCTION      0.00   627.29     0  01:49           0       0.802       0.628
  YS02001895           JUNCTION      0.00   588.43     0  01:48           0        0.78       0.178
  YS02001898           JUNCTION      0.00   592.10     0  01:48           0       0.778       0.035
  YS02001901           JUNCTION      0.00   596.71     0  01:48           0       0.781       0.422
  YS02001904           JUNCTION      0.00   597.93     0  01:48           0       0.786       0.363
  YS02001907           JUNCTION      0.00  1621.83     0  01:50           0        2.41       0.751
  YS02001910           JUNCTION      0.00  1103.56     0  01:50           0        1.64       0.444
  YS02001915           JUNCTION    640.74  1102.66     0  01:50       0.992        1.68       0.101
  YS02001918           JUNCTION      0.00   697.36     0  01:48           0       0.723      -0.003
  YS02001920           JUNCTION      2.87   634.28     0  01:48      0.0827       0.699       0.127
  YS02001923           JUNCTION      0.04   880.78     0  01:48     0.00109       0.598      -0.276
  YS02001926           JUNCTION      0.05  1116.47     0  01:49      0.0015       0.576      -0.477
  YS02001929           JUNCTION    323.10  1031.91     0  01:49       0.558       0.564      -0.706
  YS02006553           JUNCTION      0.00   673.71     0  02:04           0        1.83       0.656
  YS02006556           JUNCTION      0.00   672.00     0  02:04           0        1.83       0.415
  YS02006558           JUNCTION    785.88  1170.03     0  01:48        1.12        2.93       0.121
  YS02006561           JUNCTION      0.00  1172.04     0  01:48           0         2.9      -0.013
  YS02163301           JUNCTION      0.00   884.02     0  01:48           0        2.53       0.967
  YS02163601           JUNCTION      0.11  1437.43     0  01:48     0.00317        3.61       0.844
  YS02164001           JUNCTION      0.00  1436.52     0  01:48           0        3.59       0.585
  CC-1                 OUTFALL       0.00   683.00     0  00:00           0       0.208       0.000
  CC-2                 OUTFALL       0.00   683.00     0  00:00           0       0.208       0.000
  JK-1                 OUTFALL       0.00  1000.00     0  00:00           0      0.0791       0.000
  JK-2                 OUTFALL       0.00  1000.00     0  00:00           0      0.0791       0.000
  WSC                  OUTFALL       0.00   818.17     0  02:56           0        14.4       0.000
  CC-storage           STORAGE       0.00  3451.05     0  01:50           0        9.63       0.442
  JK-storage           STORAGE       0.00  1081.70     0  01:49           0           3       0.487
  XR-storage           STORAGE     200.00   200.00     0  00:00        5.76        6.36     -41.886
  
  
  **********************
  Node Surcharge Summary
  **********************
  
  Surcharging occurs when water rises above the top of the highest conduit.
  ---------------------------------------------------------------------
                                               Max. Height   Min. Depth
                                   Hours       Above Crown    Below Rim
  Node                 Type      Surcharged         Meters       Meters
  ---------------------------------------------------------------------
  WS02006109           JUNCTION        1.60          0.015        1.805
  WS02006228           JUNCTION        1.60          0.013        2.187
  WS02006229           JUNCTION        1.61          0.024        2.426
  WS02006232           JUNCTION        1.66          0.050        1.430
  WS02006235           JUNCTION        1.61          0.055        1.235
  WS02006238           JUNCTION        1.64          0.088        1.342
  WS02006239           JUNCTION        1.62          0.066        1.224
  WS02006240           JUNCTION        1.62          0.079        1.311
  WS02006242           JUNCTION        1.69          0.173        0.647
  WS02006243           JUNCTION        1.63          0.135        0.635
  WS02006245           JUNCTION        1.63          0.148        0.702
  WS02006247           JUNCTION        1.65          0.215        0.545
  WS02006248           JUNCTION        1.63          0.139        0.241
  WS02006249           JUNCTION        1.64          0.194        0.196
  WS02006252           JUNCTION        1.92          1.100        0.000
  WS02006256           JUNCTION        2.84          2.050        0.000
  YS02001580           JUNCTION        0.41          0.450        0.000
  YS02001583           JUNCTION        0.42          0.500        0.000
  YS02001586           JUNCTION        0.59          0.510        0.000
  YS02001590           JUNCTION        0.67          0.750        0.000
  YS02001593           JUNCTION        0.68          0.752        0.088
  YS02001596           JUNCTION        0.84          0.971        0.099
  YS02001600           JUNCTION        1.43          1.190        0.000
  YS02001601           JUNCTION        6.36          1.440        0.000
  YS02001602           JUNCTION        6.33          1.270        0.000
  YS02001605           JUNCTION        6.32          1.180        0.000
  YS02001607           JUNCTION        1.22          0.645        0.035
  YS02001610           JUNCTION        1.33          0.680        0.000
  YS02001613           JUNCTION        1.24          0.690        0.010
  YS02001616           JUNCTION        0.86          0.610        0.000
  YS02001619           JUNCTION        0.81          0.610        0.000
  YS02001622           JUNCTION        0.86          0.620        0.000
  YS02001625           JUNCTION        6.23          0.780        0.000
  YS02001629           JUNCTION        0.72          0.470        0.000
  YS02001633           JUNCTION        6.24          1.021        0.039
  YS02001641           JUNCTION        6.23          0.957        0.143
  YS02001644           JUNCTION        6.23          0.920        0.000
  YS02001647           JUNCTION        6.19          0.758        0.142
  YS02001649           JUNCTION        6.20          0.946        0.104
  YS02001652           JUNCTION        6.19          0.757        0.373
  YS02001655           JUNCTION        0.32          0.716        0.484
  YS02001658           JUNCTION        0.07          0.629        0.671
  YS02001661           JUNCTION        0.01          0.131        1.259
  YS02001748           JUNCTION        0.01          0.527        0.663
  YS02001751           JUNCTION        0.11          0.708        0.492
  YS02001754           JUNCTION        6.18          0.758        0.392
  YS02001757           JUNCTION        6.19          1.021        0.189
  YS02001759           JUNCTION        6.19          0.973        0.237
  YS02001762           JUNCTION        6.19          0.966        0.184
  YS02001765           JUNCTION        6.18          0.924        0.176
  YS02001767           JUNCTION        6.18          1.030        0.000
  YS02001770           JUNCTION        6.18          0.920        0.000
  YS02001774           JUNCTION        6.18          1.050        0.000
  YS02001779           JUNCTION        6.17          0.680        0.000
  YS02001783           JUNCTION        0.52          1.234        0.366
  YS02001784           JUNCTION        0.52          1.172        0.318
  YS02001786           JUNCTION        0.51          1.016        0.414
  YS02001788           JUNCTION        0.49          0.847        0.633
  YS02001790           JUNCTION        6.17          0.954        0.203
  YS02001791           JUNCTION        6.17          0.906        1.014
  YS02001793           JUNCTION        6.18          0.949        1.651
  YS02001882           JUNCTION        0.38          0.830        0.000
  YS02001884           JUNCTION        0.39          0.744        0.126
  YS02001887           JUNCTION        0.42          0.798        0.152
  YS02001890           JUNCTION        0.43          0.760        0.000
  YS02001895           JUNCTION        0.37          0.639        0.111
  YS02001898           JUNCTION        0.37          0.663        0.077
  YS02001901           JUNCTION        0.41          0.687        0.183
  YS02001904           JUNCTION        0.40          0.649        0.201
  YS02001907           JUNCTION        0.57          0.950        0.000
  YS02001910           JUNCTION        0.45          0.991        0.109
  YS02001915           JUNCTION        0.38          0.936        0.064
  YS02001918           JUNCTION        0.30          0.810        0.000
  YS02001920           JUNCTION        0.31          1.140        0.000
  YS02001923           JUNCTION        0.01          0.820        0.000
  YS02001926           JUNCTION        0.02          0.900        0.000
  YS02001929           JUNCTION        0.01          0.780        0.000
  YS02006553           JUNCTION        0.58          1.120        0.070
  YS02006556           JUNCTION        0.51          1.245        0.105
  YS02006558           JUNCTION        0.51          1.297        0.103
  YS02006561           JUNCTION        0.33          0.798        0.352
  YS02163301           JUNCTION        6.24          0.933        0.097
  YS02163601           JUNCTION        6.24          1.061        0.019
  YS02164001           JUNCTION        6.23          0.972        0.128
  
  
  *********************
  Node Flooding Summary
  *********************
  
  Flooding refers to all water that overflows a node, whether it ponds or not.
  --------------------------------------------------------------------------
                                                             Total   Maximum
                                 Maximum   Time of Max       Flood    Ponded
                        Hours       Rate    Occurrence      Volume     Depth
  Node                 Flooded       LPS   days hr:min    10^6 ltr    Meters
  --------------------------------------------------------------------------
  WS02006252              0.01    245.63      0  00:00       0.000     0.000
  WS02006256              0.02    293.19      0  00:00       0.005     0.000
  YS02001580              0.01    105.24      0  01:47       0.001     0.000
  YS02001583              0.01    155.99      0  01:47       0.000     0.000
  YS02001586              0.32    206.01      0  01:52       0.139     0.000
  YS02001590              0.01     69.99      0  01:45       0.000     0.000
  YS02001600              0.01      4.81      0  01:47       0.000     0.000
  YS02001601              0.52    869.78      0  01:51       0.789     0.000
  YS02001602              0.46     62.02      0  01:53       0.086     0.000
  YS02001605              0.01      1.78      0  01:47       0.000     0.000
  YS02001610              0.37    400.14      0  01:53       0.291     0.000
  YS02001616              0.01     75.16      0  01:47       0.000     0.000
  YS02001619              0.01     65.59      0  01:47       0.000     0.000
  YS02001622              0.01    173.12      0  01:47       0.000     0.000
  YS02001625              0.35   1002.75      0  01:52       0.503     0.000
  YS02001629              0.06    259.13      0  01:47       0.021     0.000
  YS02001644              0.04    360.17      0  01:51       0.033     0.000
  YS02001767              0.01    121.90      0  01:49       0.000     0.000
  YS02001770              0.01    260.41      0  01:49       0.000     0.000
  YS02001774              0.01    186.63      0  01:49       0.000     0.000
  YS02001779              0.03    472.69      0  01:49       0.010     0.000
  YS02001882              0.01     62.02      0  01:47       0.000     0.000
  YS02001890              0.07    112.39      0  01:48       0.017     0.000
  YS02001907              0.24   1517.62      0  01:50       0.576     0.000
  YS02001918              0.01    224.65      0  01:49       0.003     0.000
  YS02001920              0.01     55.97      0  01:49       0.000     0.000
  YS02001923              0.01    245.89      0  01:49       0.001     0.000
  YS02001926              0.01     78.30      0  01:49       0.000     0.000
  YS02001929              0.01    822.08      0  01:49       0.006     0.000
  JK-storage              6.17   1077.53      0  01:50       2.508     0.000
  
  
  **********************
  Storage Volume Summary
  **********************
  
  ------------------------------------------------------------------------------------------------
                         Average    Avg   Evap  Exfil     Maximum    Max    Time of Max    Maximum
                          Volume   Pcnt   Pcnt   Pcnt      Volume   Pcnt     Occurrence    Outflow
  Storage Unit           1000 m³   Full   Loss   Loss     1000 m³   Full    days hr:min        LPS
  ------------------------------------------------------------------------------------------------
  CC-storage               4.962   77.4    0.0    0.0       6.393   99.7       0  08:00    1783.53
  JK-storage               0.228   78.1    0.0    0.0       0.291  100.0       0  01:49    2300.00
  XR-storage               0.038    2.6    0.0    0.0       0.600   41.7       0  00:00     380.00
  
  
  ***********************
  Outfall Loading Summary
  ***********************
  
  -----------------------------------------------------------
                         Flow       Avg       Max       Total
                         Freq      Flow      Flow      Volume
  Outfall Node           Pcnt       LPS       LPS    10^6 ltr
  -----------------------------------------------------------
  CC-1                   1.39    683.00    683.00       0.208
  CC-2                   1.39    683.00    683.00       0.208
  JK-1                   1.30    347.46   1000.00       0.079
  JK-2                   1.30    347.46   1000.00       0.079
  WSC                   99.92    553.72    818.17      14.374
  -----------------------------------------------------------
  System                21.06   2614.65   3366.35      14.949
  
  
  ********************
  Link Flow Summary
  ********************
  
  -----------------------------------------------------------------------------
                                 Maximum  Time of Max   Maximum    Max/    Max/
                                  |Flow|   Occurrence   |Veloc|    Full    Full
  Link                 Type          LPS  days hr:min     m/sec    Flow   Depth
  -----------------------------------------------------------------------------
  1                    CONDUIT    818.17     0  02:56      3.15    0.28    0.37
  WS02001211WS02001212 CONDUIT    390.86     0  03:36      0.78    0.30    0.64
  WS02001212WS02001213 CONDUIT    392.63     0  03:35      1.32    0.61    0.45
  WS02001213WS02003059 CONDUIT    395.67     0  03:35      0.85    0.65    0.75
  WS02003059WS02003060 CONDUIT    399.95     0  03:35      0.95    0.26    0.63
  WS02003060WS02003069 CONDUIT    816.03     0  02:54      1.80    0.32    0.42
  WS02003066WSF200     CONDUIT    411.84     0  02:54      2.69    0.07    0.19
  WS02003067WS02003066 CONDUIT    411.84     0  02:54      1.04    0.13    0.38
  WS02003069WS02003072 CONDUIT    816.35     0  02:55      1.55    0.39    0.47
  WS02003072WS02003073 CONDUIT    816.35     0  02:55      1.64    1.76    0.45
  WS02004138WS02004139 CONDUIT    395.20     0  00:00      3.65    0.08    0.43
  WS02004139WS02001211 CONDUIT    381.78     0  03:36      0.91    0.48    0.59
  WS02004401WS02004402 CONDUIT    411.97     0  03:22      0.99    0.49    0.77
  WS02004402WS02004403 CONDUIT    412.03     0  03:22      0.99    0.59    0.79
  WS02004403WS02004404 CONDUIT    411.91     0  02:46      0.93    0.30    0.84
  WS02004404WS02004405 CONDUIT    412.07     0  02:46      1.10    4.04    0.88
  WS02004405WS02004406 CONDUIT    412.21     0  03:23      1.03    0.81    0.88
  WS02004406WS02004407 CONDUIT    412.00     0  02:47      0.89    0.18    0.57
  WS02004407WS02004409 CONDUIT    411.94     0  02:47      1.42    0.15    0.42
  WS02004409WS02004410 CONDUIT    411.90     0  02:10      0.92    0.53    0.58
  WS02004410WS02004411 CONDUIT    411.89     0  02:36      0.86    0.56    0.60
  WS02004411WS02004412 CONDUIT    411.88     0  02:35      0.81    0.59    0.61
  WS02004412WS02004413 CONDUIT    411.89     0  02:35      0.70    0.28    0.70
  WS02004413WS02003067 CONDUIT    411.85     0  02:53      0.96    0.18    0.53
  WS02006109WS02006110 CONDUIT    411.73     0  02:46      0.84    0.79    0.94
  WS02006110WS02006113 CONDUIT    411.94     0  02:08      1.03    0.37    0.75
  WS02006111WS02006112 CONDUIT    413.55     0  02:08      1.83    0.20    0.65
  WS02006112WS02006115 CONDUIT    412.23     0  03:22      0.71    0.24    0.78
  WS02006113WS02006111 CONDUIT    423.75     0  02:20      2.25    0.51    0.40
  WS02006115WS02006116 CONDUIT    412.18     0  03:22      0.98    0.53    0.66
  WS02006116WS02004401 CONDUIT    412.13     0  03:22      1.00    0.57    0.74
  WS02006228WS02006109 CONDUIT    410.50     0  02:46      1.06    1.79    1.00
  WS02006229WS02006228 CONDUIT    410.50     0  02:45      1.13    1.36    1.00
  WS02006230WS02006229 CONDUIT    410.51     0  02:45      1.22    9.14    1.00
  WS02006231WS02006230 CONDUIT    400.37     0  02:27      1.37    6.07    0.77
  WS02006232WS02006231 CONDUIT    400.38     0  02:27      1.08    0.84    0.92
  WS02006234WS02006232 CONDUIT    400.39     0  02:27      1.40    0.81    1.00
  WS02006235WS02006234 CONDUIT    401.35     0  01:54      1.30    4.23    0.99
  WS02006238WS02006235 CONDUIT    401.93     0  02:44      1.51    0.90    1.00
  WS02006239WS02006238 CONDUIT    402.59     0  02:40      1.22    1.29    1.00
  WS02006240WS02006239 CONDUIT    401.10     0  01:54      1.30    1.26    1.00
  WS02006242WS02006240 CONDUIT    400.90     0  02:06      1.17    1.59    1.00
  WS02006243WS02006242 CONDUIT    401.03     0  02:03      1.43    0.86    1.00
  WS02006245WS02006243 CONDUIT    401.93     0  02:15      1.45    1.19    1.00
  WS02006247WS02006245 CONDUIT    403.68     0  02:23      1.43    3.20    1.00
  WS02006248WS02006247 CONDUIT    400.96     0  02:03      1.44    0.87    1.00
  WS02006249WS02006248 CONDUIT    401.17     0  02:07      1.38    2.20    1.00
  WS02006251WS02006249 CONDUIT    458.97     0  00:00      1.99    1.32    1.00
  WS02006252WS02006251 CONDUIT    401.09     0  03:04     24.55    1.47    1.00
  WS02006256WS02006235 CONDUIT    288.91     0  00:00      4.23    3.06    1.00
  WSF200WS02003060     CONDUIT    411.85     0  02:36      1.43    0.09    0.30
  YS02001580YS02001583 CONDUIT    173.50     0  01:47      0.91    0.67    1.00
  YS02001583YS02001586 CONDUIT    209.67     0  01:47      0.93    0.32    1.00
  YS02001586YS02001590 CONDUIT    318.12     0  01:55      1.29    0.56    1.00
  YS02001590YS02001593 CONDUIT    318.05     0  01:55      1.12    2.00    1.00
  YS02001593YS02001596 CONDUIT    318.06     0  02:03      1.62    0.50    1.00
  YS02001596YS02001600 CONDUIT    318.13     0  01:55      1.13    0.62    1.00
  YS02001600YS02001601 CONDUIT    318.10     0  01:53      1.13    0.55    1.00
  YS02001601YS02001602 CONDUIT    575.15     0  01:46      2.03    2.08    1.00
  YS02001602YS02001605 CONDUIT    574.80     0  01:46      2.03   12.16    1.00
  YS02001605YS02001607 CONDUIT    574.62     0  01:46      2.03    3.15    1.00
  YS02001607YS02001610 CONDUIT    533.94     0  01:46      0.70    0.51    1.00
  YS02001610YS02001613 CONDUIT    512.91     0  01:47      0.66    0.59    1.00
  YS02001613YS02001616 CONDUIT    491.76     0  01:47      0.65    0.42    1.00
  YS02001616YS02001619 CONDUIT    485.39     0  01:47      0.66    0.84    1.00
  YS02001619YS02001622 CONDUIT    929.15     0  01:47      1.27    1.37    1.00
  YS02001622YS02001625 CONDUIT    924.35     0  01:47      1.18    0.49    1.00
  YS02001625YS02001629 CONDUIT    904.78     0  01:47      1.16    0.43    1.00
  YS02001629YS02163301 CONDUIT    884.02     0  01:48      1.13    1.09    1.00
  YS02001633YS02163601 CONDUIT   1437.32     0  01:48      1.83    1.51    1.00
  YS02001641YS02001644 CONDUIT   1437.88     0  01:48      1.83    4.65    1.00
  YS02001644YS02001647 CONDUIT   1939.95     0  01:48      2.47    1.14    1.00
  YS02001647YS02001649 CONDUIT   1940.75     0  01:48      2.47    1.02    1.00
  YS02001649YS02001757 CONDUIT   2227.69     0  01:49      2.84    1.35    1.00
  YS02001652YS02001649 CONDUIT    792.66     0  01:51      1.01    0.39    1.00
  YS02001655YS02001652 CONDUIT    792.76     0  01:51      1.47    0.38    1.00
  YS02001658YS02001655 CONDUIT    792.48     0  01:51      2.05    0.34    1.00
  YS02001661YS02001658 CONDUIT    790.42     0  01:51      2.46    0.31    1.00
  YS02001664YS02001661 CONDUIT    756.75     0  01:51      2.48    0.24    0.79
  YS02001745YS02001748 CONDUIT    554.29     0  01:50      2.37    0.21    0.98
  YS02001748YS02001751 CONDUIT    560.03     0  01:50      1.89    0.28    1.00
  YS02001751YS02001754 CONDUIT    563.58     0  01:50      1.54    0.27    1.00
  YS02001754YS02001757 CONDUIT    567.88     0  01:50      0.72    0.23    1.00
  YS02001757CaochengTiaoxuchi CONDUIT   3451.05     0  01:50      4.48    1.49    1.00
  YS02001759YS02001757 CONDUIT   1393.15     0  01:49      1.77    0.99    1.00
  YS02001762YS02001759 CONDUIT    819.46     0  01:49      1.04    0.94    1.00
  YS02001765YS02001762 CONDUIT    815.92     0  01:49      1.04    0.77    1.00
  YS02001767YS02001765 CONDUIT    811.71     0  01:49      1.03    1.02    1.00
  YS02001770YS02001767 CONDUIT    806.41     0  01:49      1.03    3.19    1.00
  YS02001774YS02001770 CONDUIT    496.79     0  01:49      0.63    0.32    1.00
  YS02001779YS02001774 CONDUIT    496.04     0  01:49      0.65    0.25    1.00
  YS02001783YS02001784 CONDUIT   1159.16     0  01:49      2.31    1.60    1.00
  YS02001784YS02001785 CONDUIT   1161.69     0  01:49      2.31    2.70    1.00
  YS02001786YS02001788 CONDUIT   1168.15     0  01:49      2.48    2.25    1.00
  YS02001788YS02001790 CONDUIT   1162.76     0  01:49      2.72    0.86    1.00
  YS02001790YS02001791 CONDUIT   1166.08     0  01:49      3.21    1.27    1.00
  YS02001791YS02001793 CONDUIT   1125.90     0  01:49      5.89    0.48    1.00
  YS02001793JiankangQianchi CONDUIT   1081.70     0  01:49      1.74    0.09    1.00
  YS02001882YS02001884 CONDUIT    103.27     0  01:47      0.13    0.12    1.00
  YS02001884YS02001887 CONDUIT    144.24     0  01:47      0.18    0.19    1.00
  YS02001887YS02001890 CONDUIT    627.29     0  01:49      0.80    1.07    1.00
  YS02001890YS02001895 CONDUIT    588.43     0  01:48      0.75    0.27    1.00
  YS02001895YS02001898 CONDUIT    592.10     0  01:48      0.75    1.03    1.00
  YS02001898YS02001901 CONDUIT    596.71     0  01:48      0.76    0.38    1.00
  YS02001901YS02001904 CONDUIT    597.93     0  01:48      0.76    0.93    1.00
  YS02001904YS02001907 CONDUIT    600.39     0  01:48      0.76    0.21    1.00
  YS02001907YS02006553 CONDUIT    673.71     0  02:04      0.75    0.79    1.00
  YS02001910YS02001907 CONDUIT   1102.40     0  01:50      1.40    0.62    1.00
  YS02001915YS02001910 CONDUIT   1103.56     0  01:50      1.41    0.55    1.00
  YS02001918YS02001915 CONDUIT    697.36     0  01:48      0.92    0.38    1.00
  YS02001920YS02001918 CONDUIT    631.41     0  01:48      0.80    0.61    1.00
  YS02001923YS02001920 CONDUIT    644.09     0  01:48      0.87    0.29    1.00
  YS02001926YS02001923 CONDUIT    842.08     0  01:49      1.29    1.20    1.00
  YS02001929YS02001926 CONDUIT    743.44     0  01:49      1.24    0.35    1.00
  YS02006553YS02006556 CONDUIT    672.00     0  02:04      0.86    0.57    1.00
  YS02006556YS02006558 CONDUIT    674.09     0  02:04      0.86    0.53    1.00
  YS02006558YS02006561 CONDUIT   1172.04     0  01:48      4.15    2.59    1.00
  YS02006561YS02001783 CONDUIT   1158.27     0  01:49      2.30    0.60    1.00
  YS02163301YS02001633 CONDUIT    882.61     0  01:48      1.12    0.83    1.00
  YS02163601YS02164001 CONDUIT   1436.52     0  01:48      1.83    1.27    1.00
  YS02164001YS02001641 CONDUIT   1436.60     0  01:48      1.83    1.96    1.00
  CC-R1                PUMP       683.00     0  00:00              1.00
  CC-R2                PUMP       683.00     0  00:00              1.00
  CC-S1                PUMP       200.00     0  00:00              1.00
  CC-S2                PUMP       200.00     0  00:00              1.00
  JK-R1                PUMP      1000.00     0  00:00              1.00
  JK-R2                PUMP      1000.00     0  00:00              1.00
  JK-S                 PUMP       300.00     0  00:00              1.00
  XR-1                 PUMP        95.00     0  00:00              1.00
  XR-2                 PUMP        95.00     0  00:00              1.00
  XR-3                 PUMP        95.00     0  00:00              1.00
  XR-4                 PUMP        95.00     0  00:00              1.00
  
  
  ***************************
  Flow Classification Summary
  ***************************
  
  -------------------------------------------------------------------------------------
                      Adjusted    ---------- Fraction of Time in Flow Class ---------- 
                       /Actual         Up    Down  Sub   Sup   Up    Down  Norm  Inlet 
  Conduit               Length    Dry  Dry   Dry   Crit  Crit  Crit  Crit  Ltd   Ctrl  
  -------------------------------------------------------------------------------------
  1                       1.00   0.00  0.00  0.00  0.00  1.00  0.00  0.00  0.18  0.00
  WS02001211WS02001212    1.00   0.00  0.00  0.00  1.00  0.00  0.00  0.00  0.00  0.00
  WS02001212WS02001213    1.00   0.00  0.00  0.00  0.34  0.00  0.66  0.00  0.00  0.00
  WS02001213WS02003059    1.00   0.00  0.00  0.00  0.99  0.00  0.00  0.00  0.00  0.00
  WS02003059WS02003060    1.00   0.00  0.00  0.00  1.00  0.00  0.00  0.00  0.00  0.00
  WS02003060WS02003069    1.00   0.00  0.00  0.00  0.99  0.01  0.00  0.00  0.00  0.00
  WS02003066WSF200        1.00   0.02  0.10  0.00  0.00  0.88  0.00  0.00  0.86  0.00
  WS02003067WS02003066    1.00   0.10  0.02  0.00  0.89  0.00  0.00  0.00  0.00  0.00
  WS02003069WS02003072    1.00   0.00  0.00  0.00  0.99  0.01  0.00  0.00  0.00  0.00
  WS02003072WS02003073    1.00   0.00  0.00  0.00  0.00  0.00  0.00  1.00  0.00  0.00
  WS02004138WS02004139    1.00   0.00  0.00  0.00  0.99  0.01  0.00  0.00  1.00  0.00
  WS02004139WS02001211    1.00   0.00  0.00  0.00  1.00  0.00  0.00  0.00  0.00  0.00
  WS02004401WS02004402    1.00   0.02  0.00  0.00  0.98  0.00  0.00  0.00  0.00  0.00
  WS02004402WS02004403    1.00   0.02  0.00  0.00  0.98  0.00  0.00  0.00  0.00  0.00
  WS02004403WS02004404    1.00   0.00  0.03  0.00  0.97  0.00  0.00  0.00  0.00  0.00
  WS02004404WS02004405    1.00   0.00  0.00  0.00  1.00  0.00  0.00  0.00  0.00  0.00
  WS02004405WS02004406    1.00   0.00  0.00  0.00  1.00  0.00  0.00  0.00  0.00  0.00
  WS02004406WS02004407    1.00   0.00  0.05  0.00  0.95  0.00  0.00  0.00  0.00  0.00
  WS02004407WS02004409    1.00   0.05  0.00  0.00  0.94  0.01  0.00  0.00  0.94  0.00
  WS02004409WS02004410    1.00   0.05  0.00  0.00  0.95  0.00  0.00  0.00  0.02  0.00
  WS02004410WS02004411    1.00   0.05  0.00  0.00  0.95  0.00  0.00  0.00  0.00  0.00
  WS02004411WS02004412    1.00   0.05  0.00  0.00  0.95  0.00  0.00  0.00  0.00  0.00
  WS02004412WS02004413    1.00   0.05  0.00  0.00  0.94  0.00  0.00  0.00  0.01  0.00
  WS02004413WS02003067    1.00   0.06  0.04  0.00  0.00  0.00  0.90  0.00  0.00  0.00
  WS02006109WS02006110    1.00   0.00  0.01  0.00  0.98  0.00  0.01  0.00  0.00  0.00
  WS02006110WS02006113    1.00   0.01  0.01  0.00  0.98  0.00  0.00  0.00  0.00  0.00
  WS02006111WS02006112    1.00   0.02  0.00  0.00  0.98  0.00  0.00  0.00  0.98  0.00
  WS02006112WS02006115    1.00   0.02  0.00  0.00  0.97  0.00  0.00  0.00  0.00  0.00
  WS02006113WS02006111    1.00   0.02  0.00  0.00  0.00  0.98  0.00  0.00  0.10  0.00
  WS02006115WS02006116    1.00   0.02  0.00  0.00  0.97  0.00  0.00  0.01  0.00  0.00
  WS02006116WS02004401    1.00   0.02  0.00  0.00  0.98  0.00  0.00  0.00  0.00  0.00
  WS02006228WS02006109    1.00   0.00  0.00  0.00  1.00  0.00  0.00  0.00  0.00  0.00
  WS02006229WS02006228    1.00   0.00  0.00  0.00  0.99  0.00  0.00  0.01  0.00  0.00
  WS02006230WS02006229    1.00   0.00  0.00  0.00  0.99  0.00  0.00  0.01  0.00  0.00
  WS02006231WS02006230    1.00   0.00  0.00  0.00  0.21  0.00  0.78  0.00  0.00  0.00
  WS02006232WS02006231    1.00   0.00  0.00  0.00  0.99  0.00  0.01  0.00  0.00  0.00
  WS02006234WS02006232    1.00   0.00  0.00  0.00  1.00  0.00  0.00  0.00  0.55  0.00
  WS02006235WS02006234    1.00   0.00  0.00  0.00  0.41  0.00  0.59  0.00  0.00  0.00
  WS02006238WS02006235    1.00   0.00  0.00  0.00  1.00  0.00  0.00  0.00  0.00  0.00
  WS02006239WS02006238    1.00   0.00  0.00  0.00  1.00  0.00  0.00  0.00  0.64  0.00
  WS02006240WS02006239    1.00   0.00  0.00  0.00  0.32  0.00  0.00  0.68  0.01  0.00
  WS02006242WS02006240    1.00   0.00  0.00  0.00  0.99  0.00  0.01  0.00  0.00  0.00
  WS02006243WS02006242    1.00   0.00  0.00  0.00  0.99  0.00  0.00  0.01  0.73  0.00
  WS02006245WS02006243    1.00   0.00  0.00  0.00  0.37  0.00  0.00  0.63  0.00  0.00
  WS02006247WS02006245    1.00   0.00  0.00  0.00  0.99  0.00  0.00  0.01  0.00  0.00
  WS02006248WS02006247    1.00   0.00  0.00  0.00  0.99  0.00  0.00  0.01  0.12  0.00
  WS02006249WS02006248    1.00   0.00  0.00  0.00  0.27  0.00  0.73  0.00  0.00  0.00
  WS02006251WS02006249    1.00   0.00  0.00  0.00  1.00  0.00  0.00  0.00  0.74  0.00
  WS02006252WS02006251    1.00   0.00  0.76  0.00  0.00  0.00  0.24  0.00  0.00  0.00
  WS02006256WS02006235    1.00   0.00  0.00  0.00  1.00  0.00  0.00  0.00  0.00  0.00
  WSF200WS02003060        1.00   0.00  0.02  0.00  0.98  0.00  0.00  0.00  0.68  0.00
  YS02001580YS02001583    1.00   0.22  0.60  0.00  0.18  0.00  0.00  0.00  0.70  0.00
  YS02001583YS02001586    1.00   0.50  0.27  0.00  0.23  0.00  0.00  0.00  0.70  0.00
  YS02001586YS02001590    1.00   0.13  0.00  0.00  0.37  0.04  0.00  0.47  0.31  0.00
  YS02001590YS02001593    1.00   0.13  0.01  0.00  0.11  0.00  0.75  0.00  0.00  0.00
  YS02001593YS02001596    1.00   0.14  0.00  0.00  0.79  0.00  0.00  0.08  0.67  0.00
  YS02001596YS02001600    1.00   0.14  0.00  0.00  0.80  0.00  0.00  0.06  0.01  0.00
  YS02001600YS02001601    1.00   0.13  0.01  0.00  0.86  0.00  0.00  0.00  0.04  0.00
  YS02001601YS02001602    1.00   0.13  0.01  0.00  0.86  0.00  0.00  0.00  0.00  0.00
  YS02001602YS02001605    1.00   0.14  0.00  0.00  0.86  0.00  0.00  0.00  0.00  0.00
  YS02001605YS02001607    1.00   0.14  0.00  0.00  0.86  0.00  0.00  0.00  0.00  0.00
  YS02001607YS02001610    1.00   0.13  0.01  0.00  0.86  0.00  0.00  0.00  0.02  0.00
  YS02001610YS02001613    1.00   0.13  0.00  0.00  0.87  0.00  0.00  0.00  0.01  0.00
  YS02001613YS02001616    1.00   0.13  0.00  0.00  0.87  0.00  0.00  0.00  0.01  0.00
  YS02001616YS02001619    1.00   0.13  0.00  0.00  0.87  0.00  0.00  0.00  0.00  0.00
  YS02001619YS02001622    1.00   0.13  0.00  0.00  0.87  0.00  0.00  0.00  0.00  0.00
  YS02001622YS02001625    1.00   0.13  0.00  0.00  0.87  0.00  0.00  0.00  0.05  0.00
  YS02001625YS02001629    1.00   0.13  0.05  0.00  0.79  0.00  0.03  0.00  0.00  0.00
  YS02001629YS02163301    1.00   0.16  0.01  0.00  0.83  0.00  0.00  0.00  0.00  0.00
  YS02001633YS02163601    1.00   0.00  0.01  0.00  0.99  0.00  0.00  0.00  0.15  0.00
  YS02001641YS02001644    1.00   0.00  0.01  0.00  0.99  0.00  0.00  0.00  0.00  0.00
  YS02001644YS02001647    1.00   0.00  0.18  0.00  0.82  0.00  0.00  0.00  0.00  0.00
  YS02001647YS02001649    1.00   0.00  0.18  0.00  0.82  0.00  0.00  0.00  0.02  0.00
  YS02001649YS02001757    1.00   0.00  0.00  0.00  0.99  0.01  0.00  0.00  0.19  0.00
  YS02001652YS02001649    1.00   0.00  0.00  0.00  0.96  0.04  0.00  0.00  0.16  0.00
  YS02001655YS02001652    1.00   0.00  0.00  0.00  0.78  0.00  0.00  0.21  0.00  0.00
  YS02001658YS02001655    1.00   0.00  0.14  0.00  0.78  0.08  0.00  0.00  0.01  0.00
  YS02001661YS02001658    1.00   0.14  0.00  0.00  0.77  0.08  0.00  0.00  0.00  0.00
  YS02001664YS02001661    1.00   0.13  0.00  0.00  0.84  0.04  0.00  0.00  0.86  0.00
  YS02001745YS02001748    1.00   0.00  0.00  0.00  0.77  0.00  0.00  0.23  0.01  0.00
  YS02001748YS02001751    1.00   0.00  0.00  0.00  0.92  0.08  0.00  0.00  0.13  0.00
  YS02001751YS02001754    1.00   0.00  0.00  0.00  0.78  0.00  0.00  0.22  0.00  0.00
  YS02001754YS02001757    1.00   0.00  0.00  0.00  1.00  0.00  0.00  0.00  0.22  0.00
  YS02001757CaochengTiaoxuchi    1.00   0.00  0.00  0.00  0.98  0.02  0.00  0.00  0.21  0.00
  YS02001759YS02001757    1.00   0.00  0.00  0.00  1.00  0.00  0.00  0.00  0.06  0.00
  YS02001762YS02001759    1.00   0.00  0.00  0.00  1.00  0.00  0.00  0.00  0.04  0.00
  YS02001765YS02001762    1.00   0.00  0.00  0.00  1.00  0.00  0.00  0.00  0.16  0.00
  YS02001767YS02001765    1.00   0.00  0.00  0.00  1.00  0.00  0.00  0.00  0.00  0.00
  YS02001770YS02001767    1.00   0.00  0.00  0.00  1.00  0.00  0.00  0.00  0.00  0.00
  YS02001774YS02001770    1.00   0.00  0.13  0.00  0.86  0.00  0.00  0.00  0.03  0.00
  YS02001779YS02001774    1.00   0.00  0.00  0.00  1.00  0.00  0.00  0.00  0.18  0.00
  YS02001783YS02001784    1.00   0.00  0.18  0.00  0.82  0.00  0.00  0.00  0.00  0.00
  YS02001784YS02001785    1.00   0.00  0.00  0.00  1.00  0.00  0.00  0.00  0.17  0.00
  YS02001786YS02001788    1.00   0.00  0.00  0.00  0.97  0.03  0.00  0.00  0.00  0.00
  YS02001788YS02001790    1.00   0.00  0.00  0.00  0.96  0.04  0.00  0.00  0.19  0.00
  YS02001790YS02001791    1.00   0.00  0.00  0.00  0.79  0.21  0.00  0.00  0.02  0.00
  YS02001791YS02001793    1.00   0.00  0.00  0.00  0.77  0.23  0.00  0.00  0.00  0.00
  YS02001793JiankangQianchi    1.00   0.00  0.00  0.00  0.93  0.06  0.00  0.00  0.20  0.00
  YS02001882YS02001884    1.00   0.16  0.01  0.00  0.84  0.00  0.00  0.00  0.00  0.00
  YS02001884YS02001887    1.00   0.06  0.05  0.00  0.89  0.00  0.00  0.00  0.00  0.00
  YS02001887YS02001890    1.00   0.00  0.00  0.00  0.97  0.00  0.03  0.00  0.00  0.00
  YS02001890YS02001895    1.00   0.00  0.17  0.00  0.83  0.00  0.00  0.00  0.00  0.00
  YS02001895YS02001898    1.00   0.17  0.00  0.00  0.81  0.00  0.02  0.00  0.00  0.00
  YS02001898YS02001901    1.00   0.17  0.00  0.00  0.83  0.00  0.00  0.00  0.01  0.00
  YS02001901YS02001904    1.00   0.17  0.00  0.00  0.83  0.00  0.00  0.00  0.00  0.00
  YS02001904YS02001907    1.00   0.00  0.17  0.00  0.83  0.00  0.00  0.00  0.00  0.00
  YS02001907YS02006553    1.00   0.00  0.02  0.00  0.98  0.00  0.00  0.00  0.00  0.00
  YS02001910YS02001907    1.00   0.00  0.00  0.00  0.97  0.00  0.00  0.03  0.12  0.00
  YS02001915YS02001910    1.00   0.00  0.00  0.00  0.96  0.04  0.00  0.00  0.16  0.00
  YS02001918YS02001915    1.00   0.00  0.01  0.00  0.98  0.02  0.00  0.00  0.78  0.00
  YS02001920YS02001918    1.00   0.00  0.01  0.00  0.99  0.00  0.00  0.00  0.00  0.00
  YS02001923YS02001920    1.00   0.00  0.00  0.00  1.00  0.00  0.00  0.00  0.94  0.00
  YS02001926YS02001923    1.00   0.00  0.07  0.00  0.05  0.00  0.88  0.00  0.00  0.00
  YS02001929YS02001926    1.00   0.00  0.13  0.00  0.87  0.00  0.00  0.00  0.83  0.00
  YS02006553YS02006556    1.00   0.01  0.00  0.00  0.99  0.00  0.00  0.00  0.03  0.00
  YS02006556YS02006558    1.00   0.00  0.00  0.00  1.00  0.00  0.00  0.00  0.00  0.00
  YS02006558YS02006561    1.00   0.18  0.00  0.00  0.06  0.76  0.00  0.00  0.18  0.00
  YS02006561YS02001783    1.00   0.18  0.00  0.00  0.78  0.04  0.00  0.00  0.73  0.00
  YS02163301YS02001633    1.00   0.00  0.16  0.00  0.84  0.00  0.00  0.00  0.00  0.00
  YS02163601YS02164001    1.00   0.00  0.08  0.00  0.92  0.00  0.00  0.00  0.00  0.00
  YS02164001YS02001641    1.00   0.01  0.07  0.00  0.92  0.00  0.00  0.00  0.06  0.00
  
  
  *************************
  Conduit Surcharge Summary
  *************************
  
  ----------------------------------------------------------------------------
                                                           Hours        Hours 
                         --------- Hours Full --------   Above Full   Capacity
  Conduit                Both Ends  Upstream  Dnstream   Normal Flow   Limited
  ----------------------------------------------------------------------------
  WS02003072WS02003073        0.01      0.01      0.01      2.14         0.01
  WS02004404WS02004405        0.01      0.01      0.01      1.99         0.01
  WS02006109WS02006110        0.01      0.01      1.66      0.01         0.01
  WS02006110WS02006113        0.01      0.01      1.64      0.01         0.01
  WS02006111WS02006112        0.01      0.01      1.71      0.01         0.01
  WS02006228WS02006109        1.60      1.66      1.60      1.82         1.60
  WS02006229WS02006228        1.60      1.61      1.60      1.75         1.60
  WS02006230WS02006229        1.70      1.73      1.70      2.26         1.70
  WS02006231WS02006230        0.01      0.01      0.01      2.11         0.01
  WS02006232WS02006231        0.01      0.01      1.66      0.01         0.01
  WS02006234WS02006232        1.57      1.57      1.66      0.01         0.01
  WS02006235WS02006234        0.01      0.01      1.61      2.03         0.01
  WS02006238WS02006235        1.62      1.62      1.67      0.01         0.01
  WS02006239WS02006238        1.64      1.66      1.64      1.79         1.64
  WS02006240WS02006239        1.62      1.63      1.62      1.81         1.62
  WS02006242WS02006240        1.62      1.62      1.72      1.86         0.01
  WS02006243WS02006242        1.64      1.64      1.69      0.01         0.01
  WS02006245WS02006243        1.63      1.64      1.63      1.85         1.63
  WS02006247WS02006245        1.63      1.66      1.63      1.92         1.63
  WS02006248WS02006247        1.64      1.64      1.65      0.01         0.01
  WS02006249WS02006248        1.63      1.63      1.65      1.92         0.01
  WS02006251WS02006249        1.64      1.65      1.64      1.91         1.64
  WS02006252WS02006251        1.92      1.92      1.92      1.92         0.01
  WS02006256WS02006235        2.07      2.07      2.83      0.02         0.01
  YS02001580YS02001583        0.41      0.41      0.46      0.01         0.01
  YS02001583YS02001586        0.42      0.42      0.59      0.01         0.01
  YS02001586YS02001590        0.59      0.59      0.67      0.01         0.01
  YS02001590YS02001593        0.68      0.68      0.69      0.68         0.01
  YS02001593YS02001596        0.68      0.68      0.84      0.01         0.01
  YS02001596YS02001600        0.99      0.99      1.43      0.01         0.01
  YS02001600YS02001601        6.21      6.21      6.36      0.01         0.01
  YS02001601YS02001602        6.33      6.33      6.37      0.82         0.01
  YS02001602YS02001605        6.32      6.32      6.33      1.94         0.16
  YS02001605YS02001607        6.30      6.32      6.30      1.07         0.99
  YS02001607YS02001610        1.22      1.22      1.33      0.01         0.01
  YS02001610YS02001613        1.24      1.24      1.33      0.01         0.01
  YS02001613YS02001616        0.86      0.86      1.24      0.01         0.01
  YS02001616YS02001619        0.81      0.81      0.86      0.01         0.01
  YS02001619YS02001622        0.81      0.81      0.86      0.56         0.48
  YS02001622YS02001625        0.86      0.86      6.23      0.01         0.01
  YS02001625YS02001629        0.72      0.72      6.23      0.01         0.01
  YS02001629YS02163301        6.23      6.23      6.24      0.02         0.08
  YS02001633YS02163601        6.24      6.24      6.24      0.26         0.25
  YS02001641YS02001644        6.23      6.23      6.23      1.16         1.10
  YS02001644YS02001647        6.19      6.19      6.23      0.03         0.01
  YS02001647YS02001649        6.19      6.19      6.20      0.01         0.01
  YS02001649YS02001757        6.19      6.20      6.19      0.20         0.18
  YS02001652YS02001649        6.19      6.19      6.20      0.01         0.01
  YS02001655YS02001652        0.32      0.32      6.19      0.01         0.01
  YS02001658YS02001655        0.07      0.07      0.32      0.01         0.01
  YS02001661YS02001658        0.01      0.01      0.07      0.01         0.01
  YS02001664YS02001661        0.01      0.01      0.01      0.01         0.01
  YS02001745YS02001748        0.01      0.01      0.01      0.01         0.01
  YS02001748YS02001751        0.02      0.02      0.11      0.01         0.01
  YS02001751YS02001754        0.11      0.11      6.18      0.01         0.01
  YS02001754YS02001757        6.18      6.18      6.19      0.01         0.01
  YS02001757CaochengTiaoxuchi        6.13      6.19      6.13      0.24         0.16
  YS02001759YS02001757        6.19      6.19      6.19      0.01         0.02
  YS02001762YS02001759        6.19      6.19      6.19      0.01         0.02
  YS02001765YS02001762        6.18      6.18      6.19      0.01         0.01
  YS02001767YS02001765        6.18      6.18      6.18      0.01         0.03
  YS02001770YS02001767        6.18      6.18      6.18      0.36         0.47
  YS02001774YS02001770        6.18      6.18      6.18      0.01         0.01
  YS02001779YS02001774        6.17      6.17      6.18      0.01         0.01
  YS02001783YS02001784        0.52      0.52      0.52      0.48         0.46
  YS02001784YS02001785        0.51      0.52      0.51      0.66         0.51
  YS02001786YS02001788        0.48      0.51      0.48      0.59         0.48
  YS02001788YS02001790        0.48      0.48      6.17      0.01         0.01
  YS02001790YS02001791        6.17      6.17      6.17      0.29         0.26
  YS02001791YS02001793        6.17      6.17      6.19      0.01         0.01
  YS02001793JiankangQianchi        6.18      6.18      6.31      0.01         0.01
  YS02001882YS02001884        0.38      0.38      0.39      0.01         0.01
  YS02001884YS02001887        0.41      0.41      0.42      0.01         0.01
  YS02001887YS02001890        0.43      0.43      0.44      0.04         0.01
  YS02001890YS02001895        0.37      0.37      0.46      0.01         0.01
  YS02001895YS02001898        0.37      0.37      0.37      0.01         0.01
  YS02001898YS02001901        0.37      0.37      0.41      0.01         0.01
  YS02001901YS02001904        0.40      0.40      0.41      0.01         0.01
  YS02001904YS02001907        0.40      0.40      0.58      0.01         0.01
  YS02001907YS02006553        0.67      0.67      0.72      0.01         0.01
  YS02001910YS02001907        0.45      0.45      0.57      0.01         0.01
  YS02001915YS02001910        0.38      0.38      0.45      0.01         0.01
  YS02001918YS02001915        0.30      0.30      0.38      0.01         0.01
  YS02001920YS02001918        0.30      0.30      0.31      0.01         0.01
  YS02001923YS02001920        0.25      0.25      0.31      0.01         0.01
  YS02001926YS02001923        0.01      0.01      0.02      0.01         0.01
  YS02001929YS02001926        0.01      0.01      0.02      0.01         0.01
  YS02006553YS02006556        0.51      0.51      0.58      0.01         0.01
  YS02006556YS02006558        0.54      0.54      0.59      0.01         0.01
  YS02006558YS02006561        0.40      0.51      0.40      0.64         0.40
  YS02006561YS02001783        0.33      0.33      0.52      0.01         0.01
  YS02163301YS02001633        6.24      6.24      6.24      0.01         0.01
  YS02163601YS02164001        6.23      6.23      6.24      0.04         0.01
  YS02164001YS02001641        6.23      6.23      6.23      0.54         0.52
  
  
  ***************
  Pumping Summary
  ***************
  
  ---------------------------------------------------------------------------------------------------------
                                                  Min       Avg       Max     Total     Power    % Time Off
                        Percent   Number of      Flow      Flow      Flow    Volume     Usage    Pump Curve
  Pump                 Utilized   Start-Ups       LPS       LPS       LPS  10^6 ltr     Kw-hr    Low   High
  ---------------------------------------------------------------------------------------------------------
  CC-R1                    1.06           1      0.00    683.00    683.00     0.208      3.51    0.0  100.0
  CC-R2                    1.06           1      0.00    683.00    683.00     0.208      3.51    0.0  100.0
  CC-S1                   24.05           2      0.00    200.00    200.00     1.386      6.05    0.0   53.7
  CC-S2                   24.05           2      0.00    200.00    200.00     1.386      6.05    0.0   53.7
  JK-R1                    0.97           2      0.00    347.46   1000.00     0.078      0.47    0.0    0.0
  JK-R2                    0.97           2      0.00    347.46   1000.00     0.078      0.47    0.0    0.0
  JK-S                     0.97           2      0.00    104.30    300.00     0.023      0.44    0.0    0.0
  XR-1                   100.00           1      0.00     95.00     95.00     2.736     68.18    0.0    0.0
  XR-2                   100.00           1      0.00     95.00     95.00     2.736     68.18    0.0    0.0
  XR-3                   100.00           1      0.00     95.00     95.00     2.736     68.18    0.0    0.0
  XR-4                   100.00           1      0.00     95.00     95.00     2.736     68.18    0.0    0.0
  

  Analysis begun on:  Wed Nov  5 16:30:25 2025
  Analysis ended on:  Wed Nov  5 16:30:28 2025
  Total elapsed time: 00:00:03