
  EPA STORM WATER MANAGEMENT MODEL - VERSION 5.2 (Build 5.2.4)
  PYSWMM TOOLKIT API - VERSION v1.0 (2023-11-27)
  ------------------------------------------------------------

  WARNING 04: minimum elevation drop used for Conduit WS02004404WS02004405
  WARNING 03: negative offset ignored for Link YS02001904YS02001907
  
  ****************
  Analysis Options
  ****************
  Flow Units ............... LPS
  Process Models:
    Rainfall/Runoff ........ YES
    RDII ................... NO
    Snowmelt ............... NO
    Groundwater ............ NO
    Flow Routing ........... YES
    Ponding Allowed ........ NO
    Water Quality .......... NO
  Infiltration Method ...... HORTON
  Flow Routing Method ...... DYNWAVE
  Surcharge Method ......... EXTRAN
  Starting Date ............ 08/28/2015 08:00:00
  Ending Date .............. 08/28/2015 16:00:00
  Antecedent Dry Days ...... 8.0
  Report Time Step ......... 00:01:00
  Wet Time Step ............ 00:01:00
  Dry Time Step ............ 00:01:00
  Routing Time Step ........ 30.00 sec
  Variable Time Step ....... YES
  Maximum Trials ........... 8
  Number of Threads ........ 4
  Head Tolerance ........... 0.001500 m
  
  
  **************************        Volume         Depth
  Runoff Quantity Continuity     hectare-m            mm
  **************************     ---------       -------
  Initial LID Storage ......         0.049         1.488
  Total Precipitation ......         1.492        44.977
  Evaporation Loss .........         0.000         0.000
  Infiltration Loss ........         0.073         2.209
  Surface Runoff ...........         1.079        32.523
  Final Storage ............         0.390        11.754
  Continuity Error (%) .....        -0.046
  
  
  **************************        Volume        Volume
  Flow Routing Continuity        hectare-m      10^6 ltr
  **************************     ---------     ---------
  Dry Weather Inflow .......         0.602         6.020
  Wet Weather Inflow .......         1.078        10.782
  Groundwater Inflow .......         0.000         0.000
  RDII Inflow ..............         0.000         0.000
  External Inflow ..........         0.105         1.045
  External Outflow .........         1.495        14.953
  Flooding Loss ............         0.289         2.889
  Evaporation Loss .........         0.000         0.000
  Exfiltration Loss ........         0.000         0.000
  Initial Stored Volume ....         0.303         3.031
  Final Stored Volume ......         0.762         7.615
  Continuity Error (%) .....       -21.928
  
  
  *************************
  Highest Continuity Errors
  *************************
  Node YS02001774 (32.32%)
  Node YS02001583 (-14.24%)
  Node WS02006256 (-5.82%)
  Node YS02001884 (4.72%)
  Node YS02001754 (4.69%)
  
  
  ***************************
  Time-Step Critical Elements
  ***************************
  Link WS02001212WS02001213 (27.91%)
  Link WS02006235WS02006234 (15.77%)
  Link WS02006252WS02006251 (13.99%)
  Link WS02006238WS02006235 (13.92%)
  Link YS02001647YS02001649 (6.71%)
  
  
  ********************************
  Highest Flow Instability Indexes
  ********************************
  Link WS02006113WS02006111 (36)
  Link WS02006111WS02006112 (27)
  Link WS02006110WS02006113 (19)
  Link WS02006256WS02006235 (15)
  Link WS02006252WS02006251 (10)
  
  
  *********************************
  Most Frequent Nonconverging Nodes
  *********************************
  Node CC-1 (8.29%)
  Node CC-2 (8.29%)
  Node JK-1 (8.29%)
  Node JK-2 (8.29%)
  Node WSC (8.29%)
  
  
  *************************
  Routing Time Step Summary
  *************************
  Minimum Time Step           :     0.03 sec
  Average Time Step           :     3.29 sec
  Maximum Time Step           :     6.46 sec
  % of Time in Steady State   :     0.00
  Average Iterations per Step :     2.84
  % of Steps Not Converging   :     8.29
  Time Step Frequencies       :
     30.000 - 13.228 sec      :     0.00 %
     13.228 -  5.833 sec      :    27.09 %
      5.833 -  2.572 sec      :    33.06 %
      2.572 -  1.134 sec      :    18.98 %
      1.134 -  0.500 sec      :    20.87 %
  
  
  ***************************
  Subcatchment Runoff Summary
  ***************************
  
  ------------------------------------------------------------------------------------------------------------------------------
                            Total      Total      Total      Total     Imperv       Perv      Total       Total     Peak  Runoff
                           Precip      Runon       Evap      Infil     Runoff     Runoff     Runoff      Runoff   Runoff   Coeff
  Subcatchment                 mm         mm         mm         mm         mm         mm         mm    10^6 ltr      LPS
  ------------------------------------------------------------------------------------------------------------------------------
  sub60                     44.98       0.00       0.00       1.35      29.62       2.82      32.44        0.43   245.03   0.721
  sub61                     44.98       0.00       0.00       2.07      29.59       4.19      33.78        0.62   350.77   0.751
  sub62                     44.98       0.00       0.00       0.92      31.54       1.91      33.46        0.92   484.55   0.744
  sub63                     44.98       0.00       0.00       3.74      25.35       6.94      32.29        0.73   377.22   0.718
  sub64                     44.98       0.00       0.00       1.80      28.85       3.46      32.31        0.78   381.46   0.718
  sub65                     44.98       0.00       0.00       1.65      31.14       3.15      34.29        0.94   443.65   0.762
  sub66                     44.98       0.00       0.00       4.27      24.49       6.07      30.57        1.43   546.16   0.680
  sub67                     44.98       0.00       0.00       0.92      32.35       1.98      34.33        0.64   387.76   0.763
  sub68                     44.98       0.00       0.00       1.58      28.56       3.21      31.78        0.87   478.05   0.707
  sub69                     44.98       0.00       0.00       1.42      30.22       3.93      34.15        1.26   587.43   0.759
  sub70                     44.98       0.00       0.00       4.61      24.20       7.91      32.11        0.93   321.06   0.714
  sub71                     44.98       0.00       0.00       0.84      28.65       1.73      30.38        0.79   392.74   0.675
  sub72                     44.98       0.00       0.00       0.80      30.94       1.60      32.54        0.45   198.05   0.724
  

  ***********************
  LID Performance Summary
  ***********************

  --------------------------------------------------------------------------------------------------------------------
                                         Total      Evap     Infil   Surface    Drain    Initial     Final  Continuity
                                        Inflow      Loss      Loss   Outflow   Outflow   Storage   Storage       Error
  Subcatchment      LID Control             mm        mm        mm        mm        mm        mm        mm           %
  --------------------------------------------------------------------------------------------------------------------
  sub60             GreenRoof            44.98      0.00      0.00      0.00      0.00      7.05     52.09       -0.12
  sub61             GreenRoof            44.98      0.00      0.00      0.00      0.00      7.05     52.09       -0.12
  sub62             GreenRoof            44.98      0.00      0.00      0.00      0.00      7.05     52.09       -0.12
  sub63             GreenRoof            44.98      0.00      0.00      0.00      0.00      7.05     52.09       -0.12
  sub64             GreenRoof            44.98      0.00      0.00      0.00      0.00      7.05     52.09       -0.12
  sub65             GreenRoof            44.98      0.00      0.00      0.00      0.00      7.05     52.09       -0.12
  sub66             GreenRoof            44.98      0.00      0.00      0.00      0.00      7.05     52.09       -0.12
  sub67             GreenRoof            44.98      0.00      0.00      0.00      0.00      7.05     52.09       -0.12
  sub68             GreenRoof            44.98      0.00      0.00      0.00      0.00      7.05     52.09       -0.12
  sub69             GreenRoof            44.98      0.00      0.00      0.00      0.00      7.05     52.09       -0.12
  sub70             GreenRoof            44.98      0.00      0.00      0.00      0.00      7.05     52.09       -0.12
  sub71             GreenRoof            44.98      0.00      0.00      0.00      0.00      7.05     52.09       -0.12
  sub72             GreenRoof            44.98      0.00      0.00      0.00      0.00      7.05     52.09       -0.12
  
  ******************
  Node Depth Summary
  ******************
  
  ---------------------------------------------------------------------------------
                                 Average  Maximum  Maximum  Time of Max    Reported
                                   Depth    Depth      HGL   Occurrence   Max Depth
  Node                 Type       Meters   Meters   Meters  days hr:min      Meters
  ---------------------------------------------------------------------------------
  WS02001211           JUNCTION     0.76     0.78     5.62     0  02:34        0.78
  WS02001212           JUNCTION     0.46     0.49     5.55     0  02:31        0.49
  WS02001213           JUNCTION     0.68     0.73     5.49     0  02:31        0.73
  WS02003059           JUNCTION     0.72     0.78     5.47     0  02:30        0.78
  WS02003060           JUNCTION     0.37     0.47     5.41     0  02:30        0.47
  WS02003066           JUNCTION     0.15     0.27     5.82     0  02:29        0.27
  WS02003067           JUNCTION     0.42     0.65     5.97     0  02:29        0.65
  WS02003069           JUNCTION     0.42     0.54     5.12     0  02:30        0.54
  WS02003072           JUNCTION     0.48     0.60     4.97     0  02:31        0.60
  WS02003073           JUNCTION     0.29     0.37     4.43     0  02:32        0.37
  WS02004138           JUNCTION     0.19     0.20     7.45     0  00:00        0.19
  WS02004139           JUNCTION     0.71     0.73     5.64     0  02:33        0.73
  WS02004401           JUNCTION     0.50     0.75     6.75     0  02:16        0.75
  WS02004402           JUNCTION     0.54     0.78     6.74     0  02:16        0.78
  WS02004403           JUNCTION     0.56     0.80     6.73     0  02:16        0.80
  WS02004404           JUNCTION     0.63     0.88     6.73     0  03:21        0.88
  WS02004405           JUNCTION     0.63     0.88     6.73     0  03:21        0.87
  WS02004406           JUNCTION     0.65     0.88     6.71     0  03:22        0.88
  WS02004407           JUNCTION     0.13     0.26     6.57     0  03:22        0.26
  WS02004409           JUNCTION     0.29     0.58     6.35     0  03:22        0.57
  WS02004410           JUNCTION     0.32     0.59     6.31     0  02:28        0.59
  WS02004411           JUNCTION     0.34     0.61     6.29     0  02:28        0.61
  WS02004412           JUNCTION     0.37     0.62     6.26     0  02:28        0.62
  WS02004413           JUNCTION     0.52     0.79     6.26     0  02:29        0.79
  WS02006109           JUNCTION     0.56     0.83     7.45     0  03:20        0.83
  WS02006110           JUNCTION     0.57     0.82     7.41     0  03:20        0.82
  WS02006111           JUNCTION     0.14     0.25     6.96     0  02:15        0.25
  WS02006112           JUNCTION     0.65     0.93     6.82     0  02:15        0.93
  WS02006113           JUNCTION     0.21     0.39     7.29     0  03:19        0.39
  WS02006115           JUNCTION     0.39     0.65     6.78     0  03:20        0.65
  WS02006116           JUNCTION     0.47     0.73     6.77     0  03:20        0.73
  WS02006228           JUNCTION     0.55     0.84     7.49     0  03:20        0.84
  WS02006229           JUNCTION     0.52     0.82     7.52     0  03:20        0.82
  WS02006230           JUNCTION     0.51     0.86     7.60     0  03:20        0.86
  WS02006231           JUNCTION     0.31     0.60     7.72     0  03:21        0.60
  WS02006232           JUNCTION     0.43     0.75     7.79     0  01:57        0.75
  WS02006234           JUNCTION     0.35     0.71     7.87     0  01:58        0.71
  WS02006235           JUNCTION     0.38     0.76     7.93     0  01:51        0.76
  WS02006238           JUNCTION     0.41     0.80     7.94     0  01:48        0.80
  WS02006239           JUNCTION     0.38     0.80     8.01     0  01:54        0.80
  WS02006240           JUNCTION     0.37     0.79     8.08     0  01:54        0.78
  WS02006242           JUNCTION     0.44     0.90     8.17     0  01:53        0.90
  WS02006243           JUNCTION     0.38     0.84     8.26     0  01:54        0.83
  WS02006245           JUNCTION     0.39     0.85     8.34     0  01:49        0.85
  WS02006247           JUNCTION     0.41     0.89     8.39     0  01:53        0.89
  WS02006248           JUNCTION     0.38     0.85     8.44     0  01:51        0.85
  WS02006249           JUNCTION     0.41     0.90     8.49     0  01:51        0.90
  WS02006251           JUNCTION     0.41     0.91     8.58     0  01:57        0.91
  WS02006252           JUNCTION     0.29     1.50     9.74     0  00:00        0.59
  WS02006256           JUNCTION     0.61     2.35     9.28     0  00:00        2.35
  WSF200               JUNCTION     0.12     0.25     5.48     0  02:29        0.25
  YS02001580           JUNCTION     0.08     1.05     9.59     0  01:38        0.76
  YS02001583           JUNCTION     0.11     1.14     9.64     0  01:38        0.81
  YS02001586           JUNCTION     0.18     1.13     9.30     0  01:38        1.13
  YS02001590           JUNCTION     0.27     1.39     9.25     0  01:38        1.39
  YS02001593           JUNCTION     0.21     1.37     9.23     0  01:36        1.28
  YS02001596           JUNCTION     0.38     1.74     9.16     0  01:36        1.66
  YS02001600           JUNCTION     0.62     1.87     9.00     0  01:36        1.86
  YS02001601           JUNCTION     0.87     2.06     8.90     0  01:36        2.06
  YS02001602           JUNCTION     0.79     1.87     8.77     0  01:38        1.87
  YS02001605           JUNCTION     0.75     1.78     8.68     0  01:41        1.78
  YS02001607           JUNCTION     0.75     1.66     8.51     0  01:41        1.66
  YS02001610           JUNCTION     0.79     1.68     8.48     0  01:38        1.68
  YS02001613           JUNCTION     0.75     1.70     8.54     0  01:38        1.67
  YS02001616           JUNCTION     0.68     1.61     8.52     0  01:38        1.61
  YS02001619           JUNCTION     0.67     1.61     8.54     0  01:38        1.61
  YS02001622           JUNCTION     0.68     1.62     8.52     0  01:38        1.53
  YS02001625           JUNCTION     0.94     1.78     8.38     0  01:38        1.78
  YS02001629           JUNCTION     0.97     1.85     8.40     0  01:38        1.80
  YS02001633           JUNCTION     1.05     1.94     8.40     0  01:45        1.84
  YS02001641           JUNCTION     1.03     1.71     8.14     0  01:43        1.62
  YS02001644           JUNCTION     1.02     1.62     8.06     0  01:43        1.54
  YS02001647           JUNCTION     0.84     1.32     7.93     0  01:43        1.23
  YS02001649           JUNCTION     1.01     1.42     7.81     0  01:43        1.39
  YS02001652           JUNCTION     0.83     1.59     8.18     0  01:43        1.13
  YS02001655           JUNCTION     0.62     0.92     7.77     0  01:46        0.88
  YS02001658           JUNCTION     0.37     0.59     7.73     0  01:46        0.57
  YS02001661           JUNCTION     0.16     0.33     7.73     0  01:40        0.33
  YS02001664           JUNCTION     0.05     0.23     8.16     0  01:40        0.23
  YS02001745           JUNCTION     0.06     0.21     7.72     0  01:39        0.21
  YS02001748           JUNCTION     0.41     0.55     7.62     0  02:49        0.54
  YS02001751           JUNCTION     0.57     0.75     7.63     0  02:45        0.74
  YS02001754           JUNCTION     0.80     1.02     7.63     0  02:53        1.02
  YS02001757           JUNCTION     1.11     1.38     7.64     0  02:53        1.38
  YS02001759           JUNCTION     1.02     1.27     7.64     0  02:53        1.27
  YS02001762           JUNCTION     0.99     1.23     7.63     0  02:51        1.23
  YS02001765           JUNCTION     0.94     1.18     7.63     0  02:48        1.17
  YS02001767           JUNCTION     0.91     1.16     7.65     0  01:42        1.14
  YS02001770           JUNCTION     0.91     1.14     7.64     0  02:49        1.14
  YS02001774           JUNCTION     0.97     1.22     7.64     0  02:49        1.21
  YS02001779           JUNCTION     0.74     0.97     7.65     0  01:45        0.95
  YS02001783           JUNCTION     0.50     2.14     8.28     0  01:42        1.46
  YS02001784           JUNCTION     0.55     2.15     8.21     0  01:42        1.40
  YS02001786           JUNCTION     0.56     2.23     8.26     0  01:42        1.25
  YS02001788           JUNCTION     0.58     2.10     8.08     0  01:42        1.14
  YS02001790           JUNCTION     0.84     1.96     7.60     0  01:42        1.32
  YS02001791           JUNCTION     0.96     1.78     7.25     0  01:42        1.28
  YS02001793           JUNCTION     1.48     2.04     6.88     0  01:42        1.81
  YS02001882           JUNCTION     0.29     1.72     8.43     0  01:45        1.72
  YS02001884           JUNCTION     0.38     1.79     8.40     0  01:45        1.79
  YS02001887           JUNCTION     0.45     1.83     8.36     0  01:42        1.79
  YS02001890           JUNCTION     0.48     1.81     8.32     0  01:42        1.81
  YS02001895           JUNCTION     0.26     1.60     8.35     0  01:45        1.60
  YS02001898           JUNCTION     0.27     1.58     8.32     0  01:45        1.58
  YS02001901           JUNCTION     0.38     1.68     8.29     0  01:45        1.67
  YS02001904           JUNCTION     0.36     1.64     8.27     0  01:45        1.64
  YS02001907           JUNCTION     0.67     1.96     8.25     0  01:42        1.96
  YS02001910           JUNCTION     0.47     1.80     8.31     0  01:44        1.80
  YS02001915           JUNCTION     0.29     1.69     8.41     0  01:42        1.63
  YS02001918           JUNCTION     0.15     1.62     8.68     0  01:42        1.62
  YS02001920           JUNCTION     0.22     1.42     8.42     0  01:44        1.42
  YS02001923           JUNCTION     0.10     1.18     8.44     0  01:44        1.18
  YS02001926           JUNCTION     0.14     1.60     9.04     0  01:43        0.94
  YS02001929           JUNCTION     0.07     0.78     8.48     0  01:43        0.73
  YS02006553           JUNCTION     0.68     2.12     8.41     0  01:42        1.96
  YS02006556           JUNCTION     0.65     2.28     8.59     0  01:42        1.91
  YS02006558           JUNCTION     0.69     2.39     8.66     0  01:42        1.94
  YS02006561           JUNCTION     0.15     1.72     8.38     0  01:42        1.07
  YS02163301           JUNCTION     0.99     1.92     8.43     0  01:38        1.80
  YS02163601           JUNCTION     1.08     1.89     8.28     0  01:43        1.78
  YS02164001           JUNCTION     1.01     1.76     8.22     0  01:43        1.65
  CC-1                 OUTFALL      0.00     0.00     0.00     0  00:00        0.00
  CC-2                 OUTFALL      0.00     0.00     0.00     0  00:00        0.00
  JK-1                 OUTFALL      0.00     0.00     0.00     0  00:00        0.00
  JK-2                 OUTFALL      0.00     0.00     0.00     0  00:00        0.00
  WSC                  OUTFALL      0.29     0.37     1.04     0  02:32        0.37
  CC-storage           STORAGE      1.74     2.09     7.59     0  02:57        2.09
  JK-storage           STORAGE      4.91     5.80     6.60     0  01:42        5.80
  XR-storage           STORAGE      0.26     5.00     3.00     0  00:00        4.91
  
  
  *******************
  Node Inflow Summary
  *******************
  
  -------------------------------------------------------------------------------------------------
                                  Maximum  Maximum                  Lateral       Total        Flow
                                  Lateral    Total  Time of Max      Inflow      Inflow     Balance
                                   Inflow   Inflow   Occurrence      Volume      Volume       Error
  Node                 Type           LPS      LPS  days hr:min    10^6 ltr    10^6 ltr     Percent
  -------------------------------------------------------------------------------------------------
  WS02001211           JUNCTION      7.35   389.13     0  03:36       0.212        11.1       0.348
  WS02001212           JUNCTION      0.00   390.86     0  03:36           0        11.1       0.208
  WS02001213           JUNCTION      0.00   392.61     0  03:36           0        11.1       0.239
  WS02003059           JUNCTION      0.00   395.63     0  03:35           0          11       0.329
  WS02003060           JUNCTION     16.53   816.09     0  02:29       0.476        14.4       0.155
  WS02003066           JUNCTION      0.00   411.89     0  02:29           0        2.96       0.066
  WS02003067           JUNCTION      0.00   411.89     0  02:29           0        2.97       0.179
  WS02003069           JUNCTION      0.32   816.37     0  02:30     0.00922        14.4       0.163
  WS02003072           JUNCTION      0.00   816.35     0  02:31           0        14.4       0.210
  WS02003073           JUNCTION      1.82   818.17     0  02:31      0.0524        14.4       0.225
  WS02004138           JUNCTION      0.00   380.00     0  00:00           0        10.9       0.059
  WS02004139           JUNCTION      0.32   395.52     0  00:00     0.00924        10.9       0.407
  WS02004401           JUNCTION      0.00   412.19     0  03:21           0        3.14       0.578
  WS02004402           JUNCTION      0.00   412.19     0  03:21           0        3.12       0.555
  WS02004403           JUNCTION      0.00   412.14     0  03:21           0         3.1       0.514
  WS02004404           JUNCTION      0.16   412.22     0  03:21     0.00467        3.09       0.398
  WS02004405           JUNCTION      0.04   412.30     0  02:16      0.0011        3.08       0.594
  WS02004406           JUNCTION      0.00   412.36     0  02:16           0        3.06       0.985
  WS02004407           JUNCTION      0.00   412.10     0  03:22           0        3.03       0.180
  WS02004409           JUNCTION      0.00   412.02     0  03:22           0        3.03       0.320
  WS02004410           JUNCTION      0.00   411.98     0  03:22           0        3.02       0.349
  WS02004411           JUNCTION      0.00   411.96     0  02:28           0        3.01       0.347
  WS02004412           JUNCTION      0.00   411.94     0  03:23           0           3       0.380
  WS02004413           JUNCTION      0.00   411.96     0  02:28           0        2.99       0.624
  WS02006109           JUNCTION      1.23   411.70     0  02:00      0.0354        3.24       0.531
  WS02006110           JUNCTION      0.00   411.71     0  01:59           0        3.23       0.539
  WS02006111           JUNCTION      0.00   423.58     0  02:24           0         3.2       0.134
  WS02006112           JUNCTION      0.00   414.05     0  02:15           0         3.2       0.859
  WS02006113           JUNCTION      0.00   411.92     0  02:15           0        3.21       0.266
  WS02006115           JUNCTION      0.00   412.53     0  02:15           0        3.17       0.517
  WS02006116           JUNCTION      0.00   412.31     0  03:20           0        3.15       0.426
  WS02006228           JUNCTION      0.00   410.46     0  02:00           0        3.22       0.324
  WS02006229           JUNCTION      0.00   410.46     0  02:00           0        3.23       0.338
  WS02006230           JUNCTION     10.28   410.40     0  02:00       0.296        3.24       0.350
  WS02006231           JUNCTION      0.00   400.14     0  02:01           0        2.95       0.285
  WS02006232           JUNCTION      0.00   400.15     0  01:52           0        2.97       0.740
  WS02006234           JUNCTION      0.00   400.75     0  01:54           0        2.98       0.074
  WS02006235           JUNCTION      0.00   402.87     0  02:03           0           3       0.512
  WS02006238           JUNCTION      0.00   400.61     0  01:54           0        2.98      -0.160
  WS02006239           JUNCTION      0.00   400.49     0  01:54           0        2.98       0.115
  WS02006240           JUNCTION      0.00   400.52     0  01:51           0        2.98       0.245
  WS02006242           JUNCTION      0.00   400.53     0  02:01           0        2.99       0.436
  WS02006243           JUNCTION      0.00   400.67     0  01:53           0           3       0.348
  WS02006245           JUNCTION      0.00   400.77     0  01:51           0        3.02       0.689
  WS02006247           JUNCTION      0.00   400.90     0  01:56           0        3.03       0.231
  WS02006248           JUNCTION      0.00   400.79     0  01:51           0        3.04       0.269
  WS02006249           JUNCTION      0.00   465.25     0  07:46           0        3.06       0.668
  WS02006251           JUNCTION      0.08   403.36     0  07:46     0.00222        3.06       0.177
  WS02006252           JUNCTION      0.00   400.00     0  00:00           0        3.06      -0.051
  WS02006256           JUNCTION      0.00   300.00     0  00:00           0      0.0242      -5.497
  WSF200               JUNCTION      0.00   411.89     0  02:29           0        2.96       0.042
  YS02001580           JUNCTION      0.00   165.43     0  01:38           0      0.0042      -5.362
  YS02001583           JUNCTION      0.00   256.64     0  01:38           0      0.0145     -12.469
  YS02001586           JUNCTION    321.06   321.13     0  01:43       0.927       0.939       0.185
  YS02001590           JUNCTION      0.00   317.94     0  01:44           0       0.923      -0.000
  YS02001593           JUNCTION      0.00   318.22     0  01:44           0       0.923       0.027
  YS02001596           JUNCTION      0.00   317.73     0  01:43           0       0.924       0.004
  YS02001600           JUNCTION      0.00   318.07     0  01:44           0       0.925       0.411
  YS02001601           JUNCTION    587.43   899.69     0  01:41        1.26        2.19       0.386
  YS02001602           JUNCTION      0.00   584.56     0  01:38           0        1.78       0.497
  YS02001605           JUNCTION      0.00   584.67     0  01:38           0        1.74       0.759
  YS02001607           JUNCTION      0.00   584.43     0  01:38           0        1.73       0.922
  YS02001610           JUNCTION      0.00   561.58     0  01:38           0        1.72       0.968
  YS02001613           JUNCTION      0.00   524.14     0  01:38           0        1.69       0.976
  YS02001616           JUNCTION      0.00   486.03     0  01:38           0        1.68       0.820
  YS02001619           JUNCTION    546.16   928.07     0  01:38        1.43        3.09       0.417
  YS02001622           JUNCTION      0.00   931.24     0  01:38           0        3.08       0.620
  YS02001625           JUNCTION      0.00   927.26     0  01:38           0        3.07       1.332
  YS02001629           JUNCTION      0.00   929.64     0  01:38           0        3.03       0.514
  YS02001633           JUNCTION    443.85  1358.31     0  01:40       0.949        3.94       0.803
  YS02001641           JUNCTION      0.00  1359.40     0  01:40           0        3.87       0.541
  YS02001644           JUNCTION    381.50  1740.70     0  01:40       0.777        4.63       0.561
  YS02001647           JUNCTION      0.00  1741.63     0  01:40           0        4.59       0.551
  YS02001649           JUNCTION      0.00  2127.18     0  01:40           0        5.27       0.708
  YS02001652           JUNCTION      0.00   460.21     0  01:40           0       0.726       2.591
  YS02001655           JUNCTION      0.15   493.52     0  01:46     0.00443       0.744       2.405
  YS02001658           JUNCTION      0.00   377.44     0  01:40           0       0.752       1.010
  YS02001661           JUNCTION      0.00   377.14     0  01:40           0       0.745       0.054
  YS02001664           JUNCTION    377.22   377.22     0  01:40       0.732       0.732      -0.017
  YS02001745           JUNCTION    245.04   245.04     0  01:39       0.426       0.427       0.293
  YS02001748           JUNCTION      0.04   244.97     0  01:39      0.0013       0.433       1.462
  YS02001751           JUNCTION      0.01   304.48     0  01:44    0.000317       0.433       4.021
  YS02001754           JUNCTION      0.26   273.42     0  01:45     0.00749       0.424       4.918
  YS02001757           JUNCTION      0.00  2780.95     0  01:41           0           7       1.388
  YS02001759           JUNCTION    350.81   780.38     0  01:43       0.621        1.41       1.660
  YS02001762           JUNCTION      0.00   477.96     0  01:43           0       0.807       2.698
  YS02001765           JUNCTION      0.00   479.75     0  01:43           0       0.832       3.016
  YS02001767           JUNCTION      0.54   477.88     0  01:43      0.0154       0.867       4.254
  YS02001770           JUNCTION    484.70   484.70     0  01:40       0.921       0.942       3.379
  YS02001774           JUNCTION      0.00   134.41     0  01:39           0      0.0779      47.749
  YS02001779           JUNCTION      0.01    75.69     0  01:40    0.000144      0.0321      70.656
  YS02001783           JUNCTION      0.00  1129.43     0  01:42           0        2.74       0.249
  YS02001784           JUNCTION      1.06  1130.91     0  01:42      0.0305        2.77       0.386
  YS02001786           JUNCTION      0.06  1131.55     0  01:42     0.00162        2.76       0.490
  YS02001788           JUNCTION      0.07  1141.85     0  01:42     0.00204        2.75       0.492
  YS02001790           JUNCTION      0.15  1103.66     0  01:42     0.00446        2.74       0.623
  YS02001791           JUNCTION      0.00  1152.62     0  01:42           0        2.72       0.524
  YS02001793           JUNCTION      0.00  1087.85     0  01:41           0        2.71       0.604
  YS02001882           JUNCTION      0.00    59.23     0  01:39           0      0.0128       4.005
  YS02001884           JUNCTION      0.00   107.45     0  01:39           0      0.0493       4.950
  YS02001887           JUNCTION    388.21   405.66     0  01:39       0.651       0.685       0.606
  YS02001890           JUNCTION      0.00   410.14     0  01:39           0       0.644       0.759
  YS02001895           JUNCTION      0.00   412.69     0  01:39           0       0.639       0.264
  YS02001898           JUNCTION      0.00   409.45     0  01:40           0       0.637      -0.011
  YS02001901           JUNCTION      0.00   412.99     0  01:40           0        0.64       0.472
  YS02001904           JUNCTION      0.00   408.04     0  01:40           0       0.648       0.373
  YS02001907           JUNCTION      0.00   965.65     0  01:44           0        1.97       0.870
  YS02001910           JUNCTION      0.00   678.12     0  01:44           0        1.32       0.522
  YS02001915           JUNCTION    392.76   676.90     0  01:44       0.795        1.35       0.107
  YS02001918           JUNCTION      0.00   326.15     0  01:40           0       0.563       0.014
  YS02001920           JUNCTION      2.87   318.13     0  01:44      0.0827       0.548       0.185
  YS02001923           JUNCTION      0.04   308.89     0  01:44     0.00109       0.459      -0.159
  YS02001926           JUNCTION      0.05   339.05     0  01:43      0.0015       0.453       0.183
  YS02001929           JUNCTION    198.05   198.05     0  01:42       0.447       0.447      -0.010
  YS02006553           JUNCTION      0.00   706.72     0  01:42           0         1.9       0.605
  YS02006556           JUNCTION      0.00   707.61     0  01:42           0        1.91       0.399
  YS02006558           JUNCTION    478.93  1145.13     0  01:42       0.899        2.78       0.116
  YS02006561           JUNCTION      0.00  1144.16     0  01:42           0        2.74      -0.001
  YS02163301           JUNCTION      0.00   917.96     0  01:40           0        3.02       0.765
  YS02163601           JUNCTION      0.11  1358.59     0  01:40     0.00317        3.91       0.766
  YS02164001           JUNCTION      0.00  1358.47     0  01:40           0        3.88       0.507
  CC-1                 OUTFALL       0.00   683.00     0  00:00           0       0.208       0.000
  CC-2                 OUTFALL       0.00   683.00     0  00:00           0       0.208       0.000
  JK-1                 OUTFALL       0.00  1000.00     0  00:00           0      0.0791       0.000
  JK-2                 OUTFALL       0.00  1000.00     0  00:00           0      0.0791       0.000
  WSC                  OUTFALL       0.00   818.16     0  02:32           0        14.4       0.000
  CC-storage           STORAGE       0.00  2767.34     0  01:43           0        9.11       0.380
  JK-storage           STORAGE       0.00  1043.35     0  01:42           0        2.84       0.534
  XR-storage           STORAGE     200.00   200.00     0  00:00        5.76        6.36     -41.886
  
  
  **********************
  Node Surcharge Summary
  **********************
  
  Surcharging occurs when water rises above the top of the highest conduit.
  ---------------------------------------------------------------------
                                               Max. Height   Min. Depth
                                   Hours       Above Crown    Below Rim
  Node                 Type      Surcharged         Meters       Meters
  ---------------------------------------------------------------------
  WS02006109           JUNCTION        1.61          0.015        1.805
  WS02006228           JUNCTION        1.60          0.013        2.187
  WS02006229           JUNCTION        1.62          0.024        2.426
  WS02006232           JUNCTION        1.66          0.050        1.430
  WS02006235           JUNCTION        1.62          0.055        1.235
  WS02006238           JUNCTION        1.64          0.080        1.350
  WS02006239           JUNCTION        1.62          0.060        1.230
  WS02006240           JUNCTION        1.63          0.077        1.313
  WS02006242           JUNCTION        1.70          0.173        0.647
  WS02006243           JUNCTION        1.64          0.132        0.638
  WS02006245           JUNCTION        1.64          0.144        0.706
  WS02006247           JUNCTION        1.65          0.179        0.581
  WS02006248           JUNCTION        1.63          0.135        0.245
  WS02006249           JUNCTION        1.65          0.196        0.194
  WS02006252           JUNCTION        2.01          1.100        0.000
  WS02006256           JUNCTION        3.15          2.050        0.000
  YS02001580           JUNCTION        0.27          0.450        0.000
  YS02001583           JUNCTION        0.28          0.500        0.000
  YS02001586           JUNCTION        0.46          0.510        0.000
  YS02001590           JUNCTION        0.54          0.740        0.010
  YS02001593           JUNCTION        0.54          0.751        0.089
  YS02001596           JUNCTION        0.67          1.009        0.061
  YS02001600           JUNCTION        0.98          1.190        0.000
  YS02001601           JUNCTION        6.47          1.440        0.000
  YS02001602           JUNCTION        6.37          1.270        0.000
  YS02001605           JUNCTION        6.35          1.180        0.000
  YS02001607           JUNCTION        0.58          0.665        0.015
  YS02001610           JUNCTION        0.64          0.680        0.000
  YS02001613           JUNCTION        0.58          0.700        0.000
  YS02001616           JUNCTION        0.51          0.610        0.000
  YS02001619           JUNCTION        0.48          0.610        0.000
  YS02001622           JUNCTION        0.49          0.620        0.000
  YS02001625           JUNCTION        1.47          0.780        0.000
  YS02001629           JUNCTION        0.41          0.470        0.000
  YS02001633           JUNCTION        6.38          0.924        0.136
  YS02001641           JUNCTION        6.37          0.705        0.395
  YS02001644           JUNCTION        6.37          0.624        0.296
  YS02001647           JUNCTION        0.97          0.315        0.585
  YS02001649           JUNCTION        6.33          0.424        0.626
  YS02001652           JUNCTION        0.23          0.559        0.571
  YS02001757           JUNCTION        6.31          0.377        0.833
  YS02001759           JUNCTION        6.30          0.271        0.939
  YS02001762           JUNCTION        6.30          0.227        0.923
  YS02001765           JUNCTION        6.29          0.177        0.923
  YS02001767           JUNCTION        6.17          0.159        0.871
  YS02001770           JUNCTION        5.76          0.113        0.807
  YS02001774           JUNCTION        6.30          0.219        0.831
  YS02001783           JUNCTION        0.46          1.336        0.264
  YS02001784           JUNCTION        0.47          1.345        0.145
  YS02001786           JUNCTION        0.42          1.430        0.000
  YS02001788           JUNCTION        0.40          1.302        0.178
  YS02001790           JUNCTION        6.29          1.157        0.000
  YS02001791           JUNCTION        6.29          0.980        0.940
  YS02001793           JUNCTION        6.30          1.043        1.557
  YS02001882           JUNCTION        0.30          0.716        0.114
  YS02001884           JUNCTION        0.31          0.728        0.142
  YS02001887           JUNCTION        0.34          0.777        0.173
  YS02001890           JUNCTION        0.36          0.760        0.000
  YS02001895           JUNCTION        0.29          0.599        0.151
  YS02001898           JUNCTION        0.28          0.551        0.189
  YS02001901           JUNCTION        0.33          0.679        0.191
  YS02001904           JUNCTION        0.32          0.638        0.212
  YS02001907           JUNCTION        0.50          0.950        0.000
  YS02001910           JUNCTION        0.38          0.800        0.300
  YS02001915           JUNCTION        0.29          0.693        0.307
  YS02001918           JUNCTION        0.17          0.617        0.193
  YS02001920           JUNCTION        0.20          0.417        0.723
  YS02001926           JUNCTION        0.01          0.596        0.304
  YS02006553           JUNCTION        0.51          1.122        0.068
  YS02006556           JUNCTION        0.45          1.238        0.112
  YS02006558           JUNCTION        0.44          1.292        0.108
  YS02006561           JUNCTION        0.20          0.920        0.230
  YS02163301           JUNCTION        6.25          0.916        0.114
  YS02163601           JUNCTION        6.38          0.886        0.194
  YS02164001           JUNCTION        6.37          0.757        0.343
  
  
  *********************
  Node Flooding Summary
  *********************
  
  Flooding refers to all water that overflows a node, whether it ponds or not.
  --------------------------------------------------------------------------
                                                             Total   Maximum
                                 Maximum   Time of Max       Flood    Ponded
                        Hours       Rate    Occurrence      Volume     Depth
  Node                 Flooded       LPS   days hr:min    10^6 ltr    Meters
  --------------------------------------------------------------------------
  WS02006252              0.01    245.63      0  00:00       0.000     0.000
  WS02006256              0.02    293.19      0  00:00       0.005     0.000
  YS02001580              0.01    103.97      0  01:38       0.000     0.000
  YS02001583              0.01    221.69      0  01:38       0.001     0.000
  YS02001586              0.08    135.57      0  01:38       0.003     0.000
  YS02001600              0.01     17.63      0  01:36       0.000     0.000
  YS02001601              0.39    501.85      0  01:41       0.396     0.000
  YS02001602              0.24     62.27      0  01:45       0.036     0.000
  YS02001605              0.01      0.22      0  01:48       0.000     0.000
  YS02001610              0.13     83.43      0  01:45       0.020     0.000
  YS02001613              0.01     34.28      0  01:38       0.000     0.000
  YS02001616              0.01     32.99      0  01:38       0.000     0.000
  YS02001619              0.01    182.40      0  01:38       0.001     0.000
  YS02001622              0.01     62.01      0  01:38       0.000     0.000
  YS02001625              0.08    131.19      0  01:38       0.005     0.000
  YS02001629              0.01    285.18      0  01:38       0.002     0.000
  YS02001786              0.01     95.52      0  01:42       0.000     0.000
  YS02001790              0.01    136.14      0  01:42       0.000     0.000
  YS02001890              0.01     13.28      0  01:45       0.000     0.000
  YS02001907              0.11    400.75      0  01:44       0.065     0.000
  JK-storage              6.29   1041.81      0  01:42       2.353     0.000
  
  
  **********************
  Storage Volume Summary
  **********************
  
  ------------------------------------------------------------------------------------------------
                         Average    Avg   Evap  Exfil     Maximum    Max    Time of Max    Maximum
                          Volume   Pcnt   Pcnt   Pcnt      Volume   Pcnt     Occurrence    Outflow
  Storage Unit           1000 m³   Full   Loss   Loss     1000 m³   Full    days hr:min        LPS
  ------------------------------------------------------------------------------------------------
  CC-storage               4.840   75.5    0.0    0.0       5.835   91.0       0  02:57    1783.53
  JK-storage               0.247   84.6    0.0    0.0       0.291  100.0       0  01:42    2300.00
  XR-storage               0.032    2.2    0.0    0.0       0.600   41.7       0  00:00     380.00
  
  
  ***********************
  Outfall Loading Summary
  ***********************
  
  -----------------------------------------------------------
                         Flow       Avg       Max       Total
                         Freq      Flow      Flow      Volume
  Outfall Node           Pcnt       LPS       LPS    10^6 ltr
  -----------------------------------------------------------
  CC-1                   1.17    683.00    683.00       0.208
  CC-2                   1.17    683.00    683.00       0.208
  JK-1                   1.09    347.46   1000.00       0.079
  JK-2                   1.09    347.46   1000.00       0.079
  WSC                   99.93    543.05    818.16      14.378
  -----------------------------------------------------------
  System                20.89   2603.98   3366.35      14.953
  
  
  ********************
  Link Flow Summary
  ********************
  
  -----------------------------------------------------------------------------
                                 Maximum  Time of Max   Maximum    Max/    Max/
                                  |Flow|   Occurrence   |Veloc|    Full    Full
  Link                 Type          LPS  days hr:min     m/sec    Flow   Depth
  -----------------------------------------------------------------------------
  1                    CONDUIT    818.16     0  02:32      3.15    0.28    0.37
  WS02001211WS02001212 CONDUIT    390.86     0  03:36      0.78    0.30    0.64
  WS02001212WS02001213 CONDUIT    392.61     0  03:36      1.32    0.61    0.45
  WS02001213WS02003059 CONDUIT    395.63     0  03:35      0.85    0.65    0.75
  WS02003059WS02003060 CONDUIT    399.95     0  03:35      0.95    0.26    0.63
  WS02003060WS02003069 CONDUIT    816.05     0  02:30      1.80    0.32    0.42
  WS02003066WSF200     CONDUIT    411.89     0  02:29      2.69    0.07    0.19
  WS02003067WS02003066 CONDUIT    411.89     0  02:29      1.04    0.13    0.38
  WS02003069WS02003072 CONDUIT    816.35     0  02:31      1.55    0.39    0.47
  WS02003072WS02003073 CONDUIT    816.35     0  02:31      1.64    1.76    0.45
  WS02004138WS02004139 CONDUIT    395.20     0  00:00      3.65    0.08    0.43
  WS02004139WS02001211 CONDUIT    381.78     0  03:36      0.91    0.48    0.59
  WS02004401WS02004402 CONDUIT    412.19     0  03:21      0.99    0.49    0.77
  WS02004402WS02004403 CONDUIT    412.14     0  03:21      0.99    0.59    0.79
  WS02004403WS02004404 CONDUIT    412.06     0  03:21      0.93    0.30    0.84
  WS02004404WS02004405 CONDUIT    412.26     0  02:16      1.10    4.04    0.88
  WS02004405WS02004406 CONDUIT    412.36     0  02:16      1.03    0.81    0.88
  WS02004406WS02004407 CONDUIT    412.10     0  03:22      0.89    0.18    0.57
  WS02004407WS02004409 CONDUIT    412.02     0  03:22      1.42    0.15    0.42
  WS02004409WS02004410 CONDUIT    411.98     0  03:22      0.92    0.53    0.58
  WS02004410WS02004411 CONDUIT    411.96     0  02:28      0.86    0.56    0.60
  WS02004411WS02004412 CONDUIT    411.94     0  03:23      0.81    0.59    0.61
  WS02004412WS02004413 CONDUIT    411.96     0  02:28      0.70    0.28    0.70
  WS02004413WS02003067 CONDUIT    411.89     0  02:29      0.96    0.18    0.53
  WS02006109WS02006110 CONDUIT    411.71     0  01:59      0.84    0.79    0.94
  WS02006110WS02006113 CONDUIT    411.92     0  02:15      1.03    0.37    0.75
  WS02006111WS02006112 CONDUIT    414.05     0  02:15      1.83    0.20    0.65
  WS02006112WS02006115 CONDUIT    412.53     0  02:15      0.71    0.24    0.78
  WS02006113WS02006111 CONDUIT    423.58     0  02:24      2.25    0.51    0.40
  WS02006115WS02006116 CONDUIT    412.31     0  03:20      0.98    0.53    0.66
  WS02006116WS02004401 CONDUIT    412.19     0  03:21      1.00    0.57    0.74
  WS02006228WS02006109 CONDUIT    410.47     0  02:00      1.06    1.79    1.00
  WS02006229WS02006228 CONDUIT    410.46     0  02:00      1.13    1.36    1.00
  WS02006230WS02006229 CONDUIT    410.46     0  02:00      1.22    9.13    1.00
  WS02006231WS02006230 CONDUIT    400.12     0  02:00      1.37    6.07    0.77
  WS02006232WS02006231 CONDUIT    400.14     0  02:01      1.08    0.84    0.92
  WS02006234WS02006232 CONDUIT    400.15     0  01:52      1.40    0.81    1.00
  WS02006235WS02006234 CONDUIT    400.75     0  01:54      1.29    4.23    0.99
  WS02006238WS02006235 CONDUIT    402.87     0  02:03      1.48    0.90    1.00
  WS02006239WS02006238 CONDUIT    400.61     0  01:54      1.21    1.28    1.00
  WS02006240WS02006239 CONDUIT    400.49     0  01:54      1.31    1.26    1.00
  WS02006242WS02006240 CONDUIT    400.52     0  01:51      1.19    1.59    1.00
  WS02006243WS02006242 CONDUIT    400.53     0  02:01      1.43    0.86    1.00
  WS02006245WS02006243 CONDUIT    400.67     0  01:53      1.45    1.19    1.00
  WS02006247WS02006245 CONDUIT    400.77     0  01:51      1.43    3.18    1.00
  WS02006248WS02006247 CONDUIT    400.90     0  01:56      1.43    0.87    1.00
  WS02006249WS02006248 CONDUIT    400.79     0  01:51      1.40    2.20    1.00
  WS02006251WS02006249 CONDUIT    465.25     0  07:46      1.99    1.34    1.00
  WS02006252WS02006251 CONDUIT    403.28     0  07:46     24.55    1.48    1.00
  WS02006256WS02006235 CONDUIT    288.91     0  00:00      4.23    3.06    1.00
  WSF200WS02003060     CONDUIT    411.89     0  02:29      1.43    0.09    0.30
  YS02001580YS02001583 CONDUIT    165.43     0  01:38      0.90    0.64    1.00
  YS02001583YS02001586 CONDUIT    196.32     0  01:38      0.92    0.30    1.00
  YS02001586YS02001590 CONDUIT    317.94     0  01:44      1.33    0.56    1.00
  YS02001590YS02001593 CONDUIT    318.22     0  01:44      1.13    2.00    1.00
  YS02001593YS02001596 CONDUIT    317.73     0  01:43      1.61    0.50    1.00
  YS02001596YS02001600 CONDUIT    318.07     0  01:44      1.12    0.62    1.00
  YS02001600YS02001601 CONDUIT    317.99     0  01:44      1.12    0.55    1.00
  YS02001601YS02001602 CONDUIT    584.56     0  01:38      2.07    2.11    1.00
  YS02001602YS02001605 CONDUIT    584.67     0  01:38      2.07   12.37    1.00
  YS02001605YS02001607 CONDUIT    584.43     0  01:38      2.07    3.20    1.00
  YS02001607YS02001610 CONDUIT    561.58     0  01:38      0.75    0.53    1.00
  YS02001610YS02001613 CONDUIT    524.14     0  01:38      0.70    0.60    1.00
  YS02001613YS02001616 CONDUIT    486.03     0  01:38      0.69    0.42    1.00
  YS02001616YS02001619 CONDUIT    468.60     0  02:01      0.66    0.81    1.00
  YS02001619YS02001622 CONDUIT    931.24     0  01:38      1.36    1.37    1.00
  YS02001622YS02001625 CONDUIT    927.26     0  01:38      1.18    0.49    1.00
  YS02001625YS02001629 CONDUIT    929.64     0  01:38      1.19    0.44    1.00
  YS02001629YS02163301 CONDUIT    917.96     0  01:40      1.17    1.13    1.00
  YS02001633YS02163601 CONDUIT   1358.48     0  01:40      1.73    1.43    1.00
  YS02001641YS02001644 CONDUIT   1359.90     0  01:40      1.73    4.40    1.00
  YS02001644YS02001647 CONDUIT   1741.63     0  01:40      2.29    1.02    1.00
  YS02001647YS02001649 CONDUIT   1755.75     0  01:41      2.36    0.93    1.00
  YS02001649YS02001757 CONDUIT   2097.00     0  01:40      2.68    1.27    1.00
  YS02001652YS02001649 CONDUIT    455.67     0  01:40      0.89    0.23    1.00
  YS02001655YS02001652 CONDUIT    460.21     0  01:40      1.65    0.22    0.96
  YS02001658YS02001655 CONDUIT    493.36     0  01:46      2.06    0.21    0.70
  YS02001661YS02001658 CONDUIT    377.44     0  01:40      2.26    0.15    0.41
  YS02001664YS02001661 CONDUIT    377.14     0  01:40      2.08    0.12    0.28
  YS02001745YS02001748 CONDUIT    244.93     0  01:39      2.08    0.09    0.29
  YS02001748YS02001751 CONDUIT    304.47     0  01:44      1.74    0.15    0.64
  YS02001751YS02001754 CONDUIT    273.16     0  01:45      1.66    0.13    0.86
  YS02001754YS02001757 CONDUIT    256.04     0  01:47      0.64    0.10    1.00
  YS02001757CaochengTiaoxuchi CONDUIT   2767.34     0  01:43      3.58    1.20    1.00
  YS02001759YS02001757 CONDUIT    781.22     0  01:43      1.08    0.56    1.00
  YS02001762YS02001759 CONDUIT    478.67     0  01:43      0.61    0.55    1.00
  YS02001765YS02001762 CONDUIT    477.96     0  01:43      0.74    0.45    1.00
  YS02001767YS02001765 CONDUIT    479.75     0  01:43      0.90    0.60    1.00
  YS02001770YS02001767 CONDUIT    477.35     0  01:43      0.95    1.89    1.00
  YS02001774YS02001770 CONDUIT    134.41     0  01:39      0.23    0.09    1.00
  YS02001779YS02001774 CONDUIT     75.68     0  01:40      0.14    0.04    0.98
  YS02001783YS02001784 CONDUIT   1129.85     0  01:42      2.25    1.56    1.00
  YS02001784YS02001785 CONDUIT   1131.49     0  01:42      2.25    2.63    1.00
  YS02001786YS02001788 CONDUIT   1141.78     0  01:42      2.37    2.20    1.00
  YS02001788YS02001790 CONDUIT   1103.51     0  01:42      2.58    0.81    1.00
  YS02001790YS02001791 CONDUIT   1152.62     0  01:42      3.29    1.25    1.00
  YS02001791YS02001793 CONDUIT   1087.85     0  01:41      6.22    0.47    1.00
  YS02001793JiankangQianchi CONDUIT   1043.35     0  01:42      2.03    0.08    1.00
  YS02001882YS02001884 CONDUIT     59.23     0  01:39      0.14    0.07    1.00
  YS02001884YS02001887 CONDUIT    107.45     0  01:39      0.14    0.14    1.00
  YS02001887YS02001890 CONDUIT    410.14     0  01:39      0.52    0.70    1.00
  YS02001890YS02001895 CONDUIT    412.69     0  01:39      0.53    0.19    1.00
  YS02001895YS02001898 CONDUIT    409.45     0  01:40      0.52    0.71    1.00
  YS02001898YS02001901 CONDUIT    412.99     0  01:40      0.53    0.27    1.00
  YS02001901YS02001904 CONDUIT    408.04     0  01:40      0.52    0.63    1.00
  YS02001904YS02001907 CONDUIT    411.46     0  01:40      0.52    0.14    1.00
  YS02001907YS02006553 CONDUIT    706.72     0  01:42      0.79    0.83    1.00
  YS02001910YS02001907 CONDUIT    679.03     0  01:44      0.86    0.38    1.00
  YS02001915YS02001910 CONDUIT    678.12     0  01:44      0.86    0.34    1.00
  YS02001918YS02001915 CONDUIT    322.59     0  01:44      0.44    0.18    1.00
  YS02001920YS02001918 CONDUIT    319.54     0  01:44      0.69    0.31    1.00
  YS02001923YS02001920 CONDUIT    315.26     0  01:44      0.85    0.14    1.00
  YS02001926YS02001923 CONDUIT    308.85     0  01:44      0.97    0.44    0.96
  YS02001929YS02001926 CONDUIT    306.04     0  01:43      1.09    0.15    0.87
  YS02006553YS02006556 CONDUIT    707.61     0  01:42      0.90    0.61    1.00
  YS02006556YS02006558 CONDUIT    706.58     0  01:42      0.90    0.56    1.00
  YS02006558YS02006561 CONDUIT   1144.16     0  01:42      4.05    2.53    1.00
  YS02006561YS02001783 CONDUIT   1129.43     0  01:42      2.28    0.58    1.00
  YS02163301YS02001633 CONDUIT    917.57     0  01:40      1.17    0.86    1.00
  YS02163601YS02164001 CONDUIT   1358.47     0  01:40      1.73    1.20    1.00
  YS02164001YS02001641 CONDUIT   1359.40     0  01:40      1.73    1.86    1.00
  CC-R1                PUMP       683.00     0  00:00              1.00
  CC-R2                PUMP       683.00     0  00:00              1.00
  CC-S1                PUMP       200.00     0  00:00              1.00
  CC-S2                PUMP       200.00     0  00:00              1.00
  JK-R1                PUMP      1000.00     0  00:00              1.00
  JK-R2                PUMP      1000.00     0  00:00              1.00
  JK-S                 PUMP       300.00     0  00:00              1.00
  XR-1                 PUMP        95.00     0  00:00              1.00
  XR-2                 PUMP        95.00     0  00:00              1.00
  XR-3                 PUMP        95.00     0  00:00              1.00
  XR-4                 PUMP        95.00     0  00:00              1.00
  
  
  ***************************
  Flow Classification Summary
  ***************************
  
  -------------------------------------------------------------------------------------
                      Adjusted    ---------- Fraction of Time in Flow Class ---------- 
                       /Actual         Up    Down  Sub   Sup   Up    Down  Norm  Inlet 
  Conduit               Length    Dry  Dry   Dry   Crit  Crit  Crit  Crit  Ltd   Ctrl  
  -------------------------------------------------------------------------------------
  1                       1.00   0.00  0.00  0.00  0.00  1.00  0.00  0.00  0.18  0.00
  WS02001211WS02001212    1.00   0.00  0.00  0.00  1.00  0.00  0.00  0.00  0.00  0.00
  WS02001212WS02001213    1.00   0.00  0.00  0.00  0.34  0.00  0.65  0.00  0.00  0.00
  WS02001213WS02003059    1.00   0.00  0.00  0.00  0.99  0.00  0.00  0.00  0.00  0.00
  WS02003059WS02003060    1.00   0.00  0.00  0.00  1.00  0.00  0.00  0.00  0.00  0.00
  WS02003060WS02003069    1.00   0.00  0.00  0.00  0.99  0.01  0.00  0.00  0.00  0.00
  WS02003066WSF200        1.00   0.02  0.10  0.00  0.00  0.88  0.00  0.00  0.86  0.00
  WS02003067WS02003066    1.00   0.10  0.02  0.00  0.89  0.00  0.00  0.00  0.00  0.00
  WS02003069WS02003072    1.00   0.00  0.00  0.00  0.99  0.01  0.00  0.00  0.00  0.00
  WS02003072WS02003073    1.00   0.00  0.00  0.00  0.00  0.00  0.00  1.00  0.00  0.00
  WS02004138WS02004139    1.00   0.00  0.00  0.00  0.99  0.01  0.00  0.00  1.00  0.00
  WS02004139WS02001211    1.00   0.00  0.00  0.00  1.00  0.00  0.00  0.00  0.00  0.00
  WS02004401WS02004402    1.00   0.02  0.00  0.00  0.98  0.00  0.00  0.00  0.00  0.00
  WS02004402WS02004403    1.00   0.02  0.00  0.00  0.98  0.00  0.00  0.00  0.00  0.00
  WS02004403WS02004404    1.00   0.00  0.03  0.00  0.97  0.00  0.00  0.00  0.00  0.00
  WS02004404WS02004405    1.00   0.00  0.00  0.00  1.00  0.00  0.00  0.00  0.00  0.00
  WS02004405WS02004406    1.00   0.00  0.00  0.00  1.00  0.00  0.00  0.00  0.00  0.00
  WS02004406WS02004407    1.00   0.00  0.05  0.00  0.95  0.00  0.00  0.00  0.00  0.00
  WS02004407WS02004409    1.00   0.05  0.00  0.00  0.94  0.01  0.00  0.00  0.94  0.00
  WS02004409WS02004410    1.00   0.05  0.00  0.00  0.95  0.00  0.00  0.00  0.02  0.00
  WS02004410WS02004411    1.00   0.05  0.00  0.00  0.95  0.00  0.00  0.00  0.00  0.00
  WS02004411WS02004412    1.00   0.05  0.00  0.00  0.95  0.00  0.00  0.00  0.00  0.00
  WS02004412WS02004413    1.00   0.05  0.00  0.00  0.94  0.00  0.00  0.00  0.01  0.00
  WS02004413WS02003067    1.00   0.06  0.04  0.00  0.00  0.00  0.90  0.00  0.00  0.00
  WS02006109WS02006110    1.00   0.00  0.01  0.00  0.98  0.00  0.01  0.00  0.00  0.00
  WS02006110WS02006113    1.00   0.01  0.01  0.00  0.98  0.00  0.00  0.00  0.00  0.00
  WS02006111WS02006112    1.00   0.02  0.00  0.00  0.98  0.00  0.00  0.00  0.98  0.00
  WS02006112WS02006115    1.00   0.02  0.00  0.00  0.97  0.00  0.00  0.00  0.00  0.00
  WS02006113WS02006111    1.00   0.02  0.00  0.00  0.00  0.98  0.00  0.00  0.10  0.00
  WS02006115WS02006116    1.00   0.02  0.00  0.00  0.97  0.00  0.00  0.01  0.00  0.00
  WS02006116WS02004401    1.00   0.02  0.00  0.00  0.98  0.00  0.00  0.00  0.00  0.00
  WS02006228WS02006109    1.00   0.00  0.00  0.00  1.00  0.00  0.00  0.00  0.00  0.00
  WS02006229WS02006228    1.00   0.00  0.00  0.00  0.99  0.00  0.00  0.01  0.00  0.00
  WS02006230WS02006229    1.00   0.00  0.00  0.00  0.99  0.00  0.00  0.01  0.00  0.00
  WS02006231WS02006230    1.00   0.00  0.00  0.00  0.21  0.00  0.78  0.00  0.00  0.00
  WS02006232WS02006231    1.00   0.00  0.00  0.00  0.99  0.00  0.01  0.00  0.00  0.00
  WS02006234WS02006232    1.00   0.00  0.00  0.00  1.00  0.00  0.00  0.00  0.51  0.00
  WS02006235WS02006234    1.00   0.00  0.00  0.00  0.45  0.00  0.55  0.00  0.00  0.00
  WS02006238WS02006235    1.00   0.00  0.00  0.00  1.00  0.00  0.00  0.00  0.00  0.00
  WS02006239WS02006238    1.00   0.00  0.00  0.00  1.00  0.00  0.00  0.00  0.60  0.00
  WS02006240WS02006239    1.00   0.00  0.00  0.00  0.36  0.00  0.00  0.64  0.01  0.00
  WS02006242WS02006240    1.00   0.00  0.00  0.00  0.99  0.00  0.01  0.00  0.00  0.00
  WS02006243WS02006242    1.00   0.00  0.00  0.00  0.99  0.00  0.00  0.01  0.69  0.00
  WS02006245WS02006243    1.00   0.00  0.00  0.00  0.41  0.00  0.00  0.59  0.00  0.00
  WS02006247WS02006245    1.00   0.00  0.00  0.00  0.99  0.00  0.00  0.01  0.00  0.00
  WS02006248WS02006247    1.00   0.00  0.00  0.00  0.99  0.00  0.00  0.01  0.13  0.00
  WS02006249WS02006248    1.00   0.00  0.00  0.00  0.31  0.00  0.69  0.00  0.00  0.00
  WS02006251WS02006249    1.00   0.00  0.00  0.00  1.00  0.00  0.00  0.00  0.69  0.00
  WS02006252WS02006251    1.00   0.00  0.72  0.00  0.00  0.00  0.28  0.00  0.53  0.00
  WS02006256WS02006235    1.00   0.00  0.00  0.00  1.00  0.00  0.00  0.00  0.00  0.00
  WSF200WS02003060        1.00   0.00  0.02  0.00  0.98  0.00  0.00  0.00  0.68  0.00
  YS02001580YS02001583    1.00   0.20  0.64  0.00  0.16  0.00  0.00  0.00  0.73  0.00
  YS02001583YS02001586    1.00   0.50  0.28  0.00  0.22  0.00  0.00  0.00  0.73  0.00
  YS02001586YS02001590    1.00   0.13  0.00  0.00  0.36  0.04  0.00  0.47  0.32  0.00
  YS02001590YS02001593    1.00   0.13  0.01  0.00  0.08  0.00  0.78  0.00  0.00  0.00
  YS02001593YS02001596    1.00   0.14  0.00  0.00  0.50  0.07  0.00  0.30  0.47  0.00
  YS02001596YS02001600    1.00   0.14  0.00  0.00  0.81  0.00  0.00  0.05  0.01  0.00
  YS02001600YS02001601    1.00   0.13  0.01  0.00  0.86  0.00  0.00  0.00  0.04  0.00
  YS02001601YS02001602    1.00   0.13  0.01  0.00  0.86  0.00  0.00  0.00  0.00  0.00
  YS02001602YS02001605    1.00   0.14  0.00  0.00  0.86  0.00  0.00  0.00  0.00  0.00
  YS02001605YS02001607    1.00   0.14  0.00  0.00  0.86  0.00  0.00  0.00  0.00  0.00
  YS02001607YS02001610    1.00   0.13  0.01  0.00  0.86  0.00  0.00  0.00  0.02  0.00
  YS02001610YS02001613    1.00   0.13  0.00  0.00  0.87  0.00  0.00  0.00  0.00  0.00
  YS02001613YS02001616    1.00   0.13  0.00  0.00  0.87  0.00  0.00  0.00  0.00  0.00
  YS02001616YS02001619    1.00   0.13  0.00  0.00  0.87  0.00  0.00  0.00  0.00  0.00
  YS02001619YS02001622    1.00   0.13  0.00  0.00  0.87  0.00  0.00  0.00  0.00  0.00
  YS02001622YS02001625    1.00   0.13  0.00  0.00  0.87  0.00  0.00  0.00  0.04  0.00
  YS02001625YS02001629    1.00   0.13  0.05  0.00  0.80  0.00  0.02  0.00  0.00  0.00
  YS02001629YS02163301    1.00   0.16  0.01  0.00  0.83  0.00  0.00  0.00  0.00  0.00
  YS02001633YS02163601    1.00   0.00  0.01  0.00  0.99  0.00  0.00  0.00  0.15  0.00
  YS02001641YS02001644    1.00   0.00  0.01  0.00  0.99  0.00  0.00  0.00  0.00  0.00
  YS02001644YS02001647    1.00   0.00  0.17  0.00  0.83  0.00  0.00  0.00  0.00  0.00
  YS02001647YS02001649    1.00   0.00  0.17  0.00  0.83  0.00  0.00  0.00  0.01  0.00
  YS02001649YS02001757    1.00   0.00  0.00  0.00  1.00  0.00  0.00  0.00  0.18  0.00
  YS02001652YS02001649    1.00   0.00  0.00  0.00  0.97  0.03  0.00  0.00  0.15  0.00
  YS02001655YS02001652    1.00   0.00  0.00  0.00  0.80  0.00  0.00  0.20  0.00  0.00
  YS02001658YS02001655    1.00   0.00  0.14  0.00  0.80  0.06  0.00  0.00  0.01  0.00
  YS02001661YS02001658    1.00   0.14  0.00  0.00  0.79  0.07  0.00  0.00  0.11  0.00
  YS02001664YS02001661    1.00   0.13  0.00  0.00  0.76  0.12  0.00  0.00  0.87  0.00
  YS02001745YS02001748    1.00   0.00  0.00  0.00  0.78  0.00  0.00  0.21  0.16  0.00
  YS02001748YS02001751    1.00   0.00  0.00  0.00  0.93  0.07  0.00  0.00  0.13  0.00
  YS02001751YS02001754    1.00   0.00  0.00  0.00  0.80  0.00  0.00  0.20  0.00  0.00
  YS02001754YS02001757    1.00   0.00  0.00  0.00  1.00  0.00  0.00  0.00  0.20  0.00
  YS02001757CaochengTiaoxuchi    1.00   0.00  0.00  0.00  0.99  0.01  0.00  0.00  0.19  0.00
  YS02001759YS02001757    1.00   0.00  0.00  0.00  1.00  0.00  0.00  0.00  0.06  0.00
  YS02001762YS02001759    1.00   0.00  0.00  0.00  1.00  0.00  0.00  0.00  0.04  0.00
  YS02001765YS02001762    1.00   0.00  0.00  0.00  1.00  0.00  0.00  0.00  0.15  0.00
  YS02001767YS02001765    1.00   0.00  0.00  0.00  1.00  0.00  0.00  0.00  0.00  0.00
  YS02001770YS02001767    1.00   0.00  0.00  0.00  1.00  0.00  0.00  0.00  0.00  0.00
  YS02001774YS02001770    1.00   0.00  0.13  0.00  0.86  0.00  0.00  0.00  0.03  0.00
  YS02001779YS02001774    1.00   0.00  0.00  0.00  1.00  0.00  0.00  0.00  0.17  0.00
  YS02001783YS02001784    1.00   0.00  0.18  0.00  0.82  0.00  0.00  0.00  0.00  0.00
  YS02001784YS02001785    1.00   0.00  0.00  0.00  1.00  0.00  0.00  0.00  0.17  0.00
  YS02001786YS02001788    1.00   0.00  0.00  0.00  0.98  0.02  0.00  0.00  0.00  0.00
  YS02001788YS02001790    1.00   0.00  0.00  0.00  0.97  0.03  0.00  0.00  0.19  0.00
  YS02001790YS02001791    1.00   0.00  0.00  0.00  0.80  0.20  0.00  0.00  0.01  0.00
  YS02001791YS02001793    1.00   0.00  0.00  0.00  0.79  0.21  0.00  0.00  0.00  0.00
  YS02001793JiankangQianchi    1.00   0.00  0.00  0.00  0.93  0.07  0.00  0.00  0.18  0.00
  YS02001882YS02001884    1.00   0.15  0.01  0.00  0.84  0.00  0.00  0.00  0.00  0.00
  YS02001884YS02001887    1.00   0.06  0.05  0.00  0.89  0.00  0.00  0.00  0.00  0.00
  YS02001887YS02001890    1.00   0.00  0.00  0.00  0.97  0.00  0.03  0.00  0.00  0.00
  YS02001890YS02001895    1.00   0.00  0.16  0.00  0.83  0.00  0.00  0.00  0.00  0.00
  YS02001895YS02001898    1.00   0.17  0.00  0.00  0.82  0.00  0.01  0.00  0.00  0.00
  YS02001898YS02001901    1.00   0.17  0.00  0.00  0.83  0.00  0.00  0.00  0.01  0.00
  YS02001901YS02001904    1.00   0.17  0.00  0.00  0.83  0.00  0.00  0.00  0.00  0.00
  YS02001904YS02001907    1.00   0.00  0.16  0.00  0.83  0.00  0.00  0.00  0.00  0.00
  YS02001907YS02006553    1.00   0.00  0.02  0.00  0.98  0.00  0.00  0.00  0.00  0.00
  YS02001910YS02001907    1.00   0.00  0.00  0.00  0.97  0.00  0.00  0.03  0.12  0.00
  YS02001915YS02001910    1.00   0.00  0.00  0.00  0.97  0.03  0.00  0.00  0.16  0.00
  YS02001918YS02001915    1.00   0.00  0.01  0.00  0.98  0.02  0.00  0.00  0.79  0.00
  YS02001920YS02001918    1.00   0.00  0.01  0.00  0.99  0.00  0.00  0.00  0.00  0.00
  YS02001923YS02001920    1.00   0.00  0.00  0.00  1.00  0.00  0.00  0.00  0.95  0.00
  YS02001926YS02001923    1.00   0.00  0.07  0.00  0.04  0.00  0.89  0.00  0.00  0.00
  YS02001929YS02001926    1.00   0.00  0.13  0.00  0.87  0.00  0.00  0.00  0.84  0.00
  YS02006553YS02006556    1.00   0.01  0.00  0.00  0.99  0.00  0.00  0.00  0.03  0.00
  YS02006556YS02006558    1.00   0.00  0.00  0.00  1.00  0.00  0.00  0.00  0.00  0.00
  YS02006558YS02006561    1.00   0.18  0.00  0.00  0.05  0.77  0.00  0.00  0.20  0.00
  YS02006561YS02001783    1.00   0.18  0.00  0.00  0.80  0.02  0.00  0.00  0.75  0.00
  YS02163301YS02001633    1.00   0.00  0.15  0.00  0.85  0.00  0.00  0.00  0.00  0.00
  YS02163601YS02164001    1.00   0.00  0.08  0.00  0.92  0.00  0.00  0.00  0.00  0.00
  YS02164001YS02001641    1.00   0.01  0.07  0.00  0.92  0.00  0.00  0.00  0.06  0.00
  
  
  *************************
  Conduit Surcharge Summary
  *************************
  
  ----------------------------------------------------------------------------
                                                           Hours        Hours 
                         --------- Hours Full --------   Above Full   Capacity
  Conduit                Both Ends  Upstream  Dnstream   Normal Flow   Limited
  ----------------------------------------------------------------------------
  WS02003072WS02003073        0.01      0.01      0.01      2.14         0.01
  WS02004404WS02004405        0.01      0.01      0.01      2.06         0.01
  WS02006109WS02006110        0.01      0.01      1.66      0.01         0.01
  WS02006110WS02006113        0.01      0.01      1.64      0.01         0.01
  WS02006111WS02006112        0.01      0.01      1.71      0.01         0.01
  WS02006228WS02006109        1.61      1.66      1.61      1.94         1.61
  WS02006229WS02006228        1.60      1.62      1.60      1.76         1.60
  WS02006230WS02006229        1.71      1.73      1.71      2.52         1.71
  WS02006231WS02006230        0.01      0.01      0.01      2.33         0.01
  WS02006232WS02006231        0.01      0.01      1.66      0.01         0.01
  WS02006234WS02006232        1.58      1.58      1.66      0.01         0.01
  WS02006235WS02006234        0.01      0.01      1.62      2.25         0.01
  WS02006238WS02006235        1.63      1.63      1.68      0.01         0.01
  WS02006239WS02006238        1.64      1.66      1.64      1.82         1.64
  WS02006240WS02006239        1.62      1.63      1.62      1.84         1.62
  WS02006242WS02006240        1.63      1.63      1.72      1.94         0.01
  WS02006243WS02006242        1.64      1.64      1.70      0.01         0.01
  WS02006245WS02006243        1.64      1.65      1.64      1.91         1.63
  WS02006247WS02006245        1.64      1.66      1.64      2.20         1.64
  WS02006248WS02006247        1.64      1.64      1.65      0.01         0.01
  WS02006249WS02006248        1.63      1.63      1.65      2.18         0.01
  WS02006251WS02006249        1.65      1.65      1.65      1.98         1.64
  WS02006252WS02006251        2.01      2.01      2.01      2.01         0.01
  WS02006256WS02006235        2.28      2.28      3.15      0.02         0.01
  YS02001580YS02001583        0.27      0.27      0.33      0.01         0.01
  YS02001583YS02001586        0.28      0.28      0.46      0.01         0.01
  YS02001586YS02001590        0.47      0.47      0.54      0.01         0.01
  YS02001590YS02001593        0.54      0.54      0.56      0.57         0.01
  YS02001593YS02001596        0.55      0.55      0.67      0.01         0.01
  YS02001596YS02001600        0.73      0.73      0.98      0.01         0.01
  YS02001600YS02001601        1.24      1.24      6.47      0.01         0.01
  YS02001601YS02001602        6.37      6.37      6.47      0.74         0.01
  YS02001602YS02001605        6.35      6.35      6.37      1.94         0.01
  YS02001605YS02001607        6.34      6.35      6.42      1.03         0.97
  YS02001607YS02001610        0.58      0.58      0.64      0.01         0.01
  YS02001610YS02001613        0.58      0.58      0.64      0.01         0.01
  YS02001613YS02001616        0.51      0.51      0.58      0.01         0.01
  YS02001616YS02001619        0.48      0.48      0.51      0.01         0.01
  YS02001619YS02001622        0.48      0.48      0.49      0.49         0.44
  YS02001622YS02001625        0.49      0.49      1.47      0.01         0.01
  YS02001625YS02001629        0.41      0.41      1.47      0.01         0.01
  YS02001629YS02163301        5.82      5.82      6.25      0.22         0.22
  YS02001633YS02163601        6.38      6.38      6.38      0.40         0.39
  YS02001641YS02001644        6.37      6.37      6.37      1.15         1.15
  YS02001644YS02001647        0.97      0.97      6.37      0.04         0.01
  YS02001647YS02001649        0.97      0.97      6.33      0.01         0.01
  YS02001649YS02001757        6.31      6.33      6.31      0.20         0.15
  YS02001652YS02001649        0.78      0.78      6.33      0.01         0.01
  YS02001655YS02001652        0.01      0.01      0.23      0.01         0.01
  YS02001754YS02001757        0.31      0.31      6.31      0.01         0.01
  YS02001757CaochengTiaoxuchi        6.26      6.31      6.26      0.19         0.09
  YS02001759YS02001757        6.30      6.30      6.31      0.01         0.01
  YS02001762YS02001759        6.30      6.30      6.30      0.01         0.01
  YS02001765YS02001762        6.29      6.29      6.30      0.01         0.01
  YS02001767YS02001765        6.17      6.17      6.29      0.01         0.01
  YS02001770YS02001767        6.13      6.15      6.17      0.30         0.20
  YS02001774YS02001770        5.76      5.76      6.30      0.01         0.01
  YS02001779YS02001774        0.01      0.01      6.30      0.01         0.01
  YS02001783YS02001784        0.45      0.46      0.47      0.41         0.37
  YS02001784YS02001785        0.42      0.47      0.42      0.60         0.41
  YS02001786YS02001788        0.40      0.42      0.40      0.53         0.40
  YS02001788YS02001790        0.40      0.40      6.29      0.01         0.01
  YS02001790YS02001791        6.29      6.29      6.29      0.19         0.14
  YS02001791YS02001793        6.29      6.29      6.30      0.01         0.01
  YS02001793JiankangQianchi        6.30      6.30      6.39      0.01         0.01
  YS02001882YS02001884        0.30      0.30      0.31      0.01         0.01
  YS02001884YS02001887        0.33      0.33      0.34      0.01         0.01
  YS02001887YS02001890        0.36      0.36      0.37      0.01         0.01
  YS02001890YS02001895        0.29      0.29      0.38      0.01         0.01
  YS02001895YS02001898        0.28      0.28      0.29      0.01         0.01
  YS02001898YS02001901        0.29      0.29      0.33      0.01         0.01
  YS02001901YS02001904        0.32      0.32      0.33      0.01         0.01
  YS02001904YS02001907        0.32      0.32      0.51      0.01         0.01
  YS02001907YS02006553        0.61      0.61      0.66      0.01         0.01
  YS02001910YS02001907        0.38      0.38      0.50      0.01         0.01
  YS02001915YS02001910        0.29      0.29      0.38      0.01         0.01
  YS02001918YS02001915        0.17      0.17      0.29      0.01         0.01
  YS02001920YS02001918        0.17      0.17      0.20      0.01         0.01
  YS02001923YS02001920        0.09      0.09      0.20      0.01         0.01
  YS02001926YS02001923        0.01      0.01      0.01      0.01         0.01
  YS02001929YS02001926        0.01      0.01      0.01      0.01         0.01
  YS02006553YS02006556        0.45      0.45      0.51      0.01         0.01
  YS02006556YS02006558        0.48      0.48      0.53      0.01         0.01
  YS02006558YS02006561        0.31      0.44      0.31      0.57         0.30
  YS02006561YS02001783        0.20      0.20      0.46      0.01         0.01
  YS02163301YS02001633        6.25      6.25      6.38      0.01         0.01
  YS02163601YS02164001        6.37      6.37      6.38      0.22         0.01
  YS02164001YS02001641        6.37      6.37      6.37      0.57         0.55
  
  
  ***************
  Pumping Summary
  ***************
  
  ---------------------------------------------------------------------------------------------------------
                                                  Min       Avg       Max     Total     Power    % Time Off
                        Percent   Number of      Flow      Flow      Flow    Volume     Usage    Pump Curve
  Pump                 Utilized   Start-Ups       LPS       LPS       LPS  10^6 ltr     Kw-hr    Low   High
  ---------------------------------------------------------------------------------------------------------
  CC-R1                    1.06           1      0.00    683.00    683.00     0.208      3.51    0.0  100.0
  CC-R2                    1.06           1      0.00    683.00    683.00     0.208      3.51    0.0  100.0
  CC-S1                   26.96           3      0.00    200.00    200.00     1.553      6.68    0.0   53.3
  CC-S2                   26.16           4      0.00    200.00    200.00     1.507      6.54    0.0   51.9
  JK-R1                    0.97           2      0.00    347.46   1000.00     0.078      0.47    0.0    0.0
  JK-R2                    0.97           2      0.00    347.46   1000.00     0.078      0.47    0.0    0.0
  JK-S                     0.97           2      0.00    104.30    300.00     0.023      0.44    0.0    0.0
  XR-1                   100.00           1      0.00     95.00     95.00     2.736     68.18    0.0    0.0
  XR-2                   100.00           1      0.00     95.00     95.00     2.736     68.18    0.0    0.0
  XR-3                   100.00           1      0.00     95.00     95.00     2.736     68.18    0.0    0.0
  XR-4                   100.00           1      0.00     95.00     95.00     2.736     68.18    0.0    0.0
  

  Analysis begun on:  Wed Nov  5 16:28:19 2025
  Analysis ended on:  Wed Nov  5 16:28:22 2025
  Total elapsed time: 00:00:03