
  EPA STORM WATER MANAGEMENT MODEL - VERSION 5.2 (Build 5.2.4)
  PYSWMM TOOLKIT API - VERSION v1.0 (2023-11-27)
  ------------------------------------------------------------

  WARNING 04: minimum elevation drop used for Conduit WS02004404WS02004405
  WARNING 03: negative offset ignored for Link YS02001904YS02001907
  
  ****************
  Analysis Options
  ****************
  Flow Units ............... LPS
  Process Models:
    Rainfall/Runoff ........ YES
    RDII ................... NO
    Snowmelt ............... NO
    Groundwater ............ NO
    Flow Routing ........... YES
    Ponding Allowed ........ NO
    Water Quality .......... NO
  Infiltration Method ...... HORTON
  Flow Routing Method ...... DYNWAVE
  Surcharge Method ......... EXTRAN
  Starting Date ............ 08/28/2015 08:00:00
  Ending Date .............. 08/28/2015 16:00:00
  Antecedent Dry Days ...... 8.0
  Report Time Step ......... 00:01:00
  Wet Time Step ............ 00:01:00
  Dry Time Step ............ 00:01:00
  Routing Time Step ........ 30.00 sec
  Variable Time Step ....... YES
  Maximum Trials ........... 8
  Number of Threads ........ 4
  Head Tolerance ........... 0.001500 m
  
  
  **************************        Volume         Depth
  Runoff Quantity Continuity     hectare-m            mm
  **************************     ---------       -------
  Initial LID Storage ......         0.049         1.488
  Total Precipitation ......         1.627        49.050
  Evaporation Loss .........         0.000         0.000
  Infiltration Loss ........         0.074         2.217
  Surface Runoff ...........         1.185        35.729
  Final Storage ............         0.419        12.618
  Continuity Error (%) .....        -0.052
  
  
  **************************        Volume        Volume
  Flow Routing Continuity        hectare-m      10^6 ltr
  **************************     ---------     ---------
  Dry Weather Inflow .......         0.602         6.020
  Wet Weather Inflow .......         1.185        11.853
  Groundwater Inflow .......         0.000         0.000
  RDII Inflow ..............         0.000         0.000
  External Inflow ..........         0.105         1.045
  External Outflow .........         1.471        14.713
  Flooding Loss ............         0.404         4.036
  Evaporation Loss .........         0.000         0.000
  Exfiltration Loss ........         0.000         0.000
  Initial Stored Volume ....         0.303         3.031
  Final Stored Volume ......         0.777         7.775
  Continuity Error (%) .....       -20.844
  
  
  *************************
  Highest Continuity Errors
  *************************
  Node YS02001774 (28.78%)
  Node WS02006256 (-5.90%)
  Node YS02001884 (5.56%)
  Node YS02001583 (-5.41%)
  Node YS02001754 (4.48%)
  
  
  ***************************
  Time-Step Critical Elements
  ***************************
  Link WS02001212WS02001213 (32.10%)
  Link WS02006238WS02006235 (23.33%)
  Link WS02006235WS02006234 (15.87%)
  Link WS02006252WS02006251 (5.63%)
  Link YS02006556YS02006558 (5.13%)
  
  
  ********************************
  Highest Flow Instability Indexes
  ********************************
  Link WS02006113WS02006111 (33)
  Link WS02006256WS02006235 (24)
  Link WS02006238WS02006235 (24)
  Link WS02006111WS02006112 (24)
  Link WS02006110WS02006113 (17)
  
  
  *********************************
  Most Frequent Nonconverging Nodes
  *********************************
  Node CC-1 (9.62%)
  Node CC-2 (9.62%)
  Node JK-1 (9.62%)
  Node JK-2 (9.62%)
  Node WSC (9.62%)
  
  
  *************************
  Routing Time Step Summary
  *************************
  Minimum Time Step           :     0.01 sec
  Average Time Step           :     3.62 sec
  Maximum Time Step           :     6.46 sec
  % of Time in Steady State   :     0.00
  Average Iterations per Step :     3.05
  % of Steps Not Converging   :     9.62
  Time Step Frequencies       :
     30.000 - 13.228 sec      :     0.00 %
     13.228 -  5.833 sec      :    30.87 %
      5.833 -  2.572 sec      :    36.06 %
      2.572 -  1.134 sec      :    21.23 %
      1.134 -  0.500 sec      :    11.84 %
  
  
  ***************************
  Subcatchment Runoff Summary
  ***************************
  
  ------------------------------------------------------------------------------------------------------------------------------
                            Total      Total      Total      Total     Imperv       Perv      Total       Total     Peak  Runoff
                           Precip      Runon       Evap      Infil     Runoff     Runoff     Runoff      Runoff   Runoff   Coeff
  Subcatchment                 mm         mm         mm         mm         mm         mm         mm    10^6 ltr      LPS
  ------------------------------------------------------------------------------------------------------------------------------
  sub60                     49.05       0.00       0.00       1.31      32.39       3.23      35.62        0.47   347.30   0.726
  sub61                     49.05       0.00       0.00       2.02      32.36       4.80      37.16        0.68   505.64   0.758
  sub62                     49.05       0.00       0.00       0.89      34.49       2.19      36.69        1.01   687.61   0.748
  sub63                     49.05       0.00       0.00       3.71      27.71       7.93      35.65        0.81   566.25   0.727
  sub64                     49.05       0.00       0.00       1.78      31.55       3.95      35.50        0.85   561.19   0.724
  sub65                     49.05       0.00       0.00       1.63      34.05       3.61      37.66        1.04   655.21   0.768
  sub66                     49.05       0.00       0.00       4.36      26.79       6.92      33.71        1.57   835.87   0.687
  sub67                     49.05       0.00       0.00       0.89      35.37       2.28      37.64        0.70   541.04   0.767
  sub68                     49.05       0.00       0.00       1.55      31.23       3.68      34.91        0.96   687.12   0.712
  sub69                     49.05       0.00       0.00       1.40      32.96       4.43      37.39        1.38   848.82   0.762
  sub70                     49.05       0.00       0.00       4.77      26.40       8.89      35.28        1.02   482.97   0.719
  sub71                     49.05       0.00       0.00       0.83      31.33       1.98      33.31        0.87   568.60   0.679
  sub72                     49.05       0.00       0.00       0.79      33.83       1.84      35.67        0.49   291.88   0.727
  

  ***********************
  LID Performance Summary
  ***********************

  --------------------------------------------------------------------------------------------------------------------
                                         Total      Evap     Infil   Surface    Drain    Initial     Final  Continuity
                                        Inflow      Loss      Loss   Outflow   Outflow   Storage   Storage       Error
  Subcatchment      LID Control             mm        mm        mm        mm        mm        mm        mm           %
  --------------------------------------------------------------------------------------------------------------------
  sub60             GreenRoof            49.05      0.00      0.00      0.00      0.00      7.05     56.18       -0.14
  sub61             GreenRoof            49.05      0.00      0.00      0.00      0.00      7.05     56.18       -0.14
  sub62             GreenRoof            49.05      0.00      0.00      0.00      0.00      7.05     56.18       -0.14
  sub63             GreenRoof            49.05      0.00      0.00      0.00      0.00      7.05     56.18       -0.14
  sub64             GreenRoof            49.05      0.00      0.00      0.00      0.00      7.05     56.18       -0.14
  sub65             GreenRoof            49.05      0.00      0.00      0.00      0.00      7.05     56.18       -0.14
  sub66             GreenRoof            49.05      0.00      0.00      0.00      0.00      7.05     56.18       -0.14
  sub67             GreenRoof            49.05      0.00      0.00      0.00      0.00      7.05     56.18       -0.14
  sub68             GreenRoof            49.05      0.00      0.00      0.00      0.00      7.05     56.18       -0.14
  sub69             GreenRoof            49.05      0.00      0.00      0.00      0.00      7.05     56.18       -0.14
  sub70             GreenRoof            49.05      0.00      0.00      0.00      0.00      7.05     56.18       -0.14
  sub71             GreenRoof            49.05      0.00      0.00      0.00      0.00      7.05     56.18       -0.14
  sub72             GreenRoof            49.05      0.00      0.00      0.00      0.00      7.05     56.18       -0.14
  
  ******************
  Node Depth Summary
  ******************
  
  ---------------------------------------------------------------------------------
                                 Average  Maximum  Maximum  Time of Max    Reported
                                   Depth    Depth      HGL   Occurrence   Max Depth
  Node                 Type       Meters   Meters   Meters  days hr:min      Meters
  ---------------------------------------------------------------------------------
  WS02001211           JUNCTION     0.76     0.78     5.62     0  02:43        0.78
  WS02001212           JUNCTION     0.46     0.49     5.55     0  02:42        0.49
  WS02001213           JUNCTION     0.68     0.73     5.49     0  02:41        0.73
  WS02003059           JUNCTION     0.72     0.78     5.47     0  02:41        0.78
  WS02003060           JUNCTION     0.37     0.47     5.41     0  02:40        0.47
  WS02003066           JUNCTION     0.15     0.27     5.82     0  02:40        0.27
  WS02003067           JUNCTION     0.41     0.65     5.97     0  02:39        0.65
  WS02003069           JUNCTION     0.41     0.54     5.12     0  02:41        0.54
  WS02003072           JUNCTION     0.48     0.60     4.97     0  02:41        0.60
  WS02003073           JUNCTION     0.29     0.37     4.43     0  02:42        0.37
  WS02004138           JUNCTION     0.19     0.20     7.45     0  00:00        0.19
  WS02004139           JUNCTION     0.71     0.73     5.64     0  02:43        0.73
  WS02004401           JUNCTION     0.49     0.75     6.75     0  02:37        0.75
  WS02004402           JUNCTION     0.52     0.78     6.74     0  02:37        0.78
  WS02004403           JUNCTION     0.55     0.80     6.73     0  02:37        0.80
  WS02004404           JUNCTION     0.62     0.88     6.73     0  02:37        0.88
  WS02004405           JUNCTION     0.62     0.88     6.73     0  02:37        0.88
  WS02004406           JUNCTION     0.63     0.88     6.71     0  02:37        0.88
  WS02004407           JUNCTION     0.12     0.26     6.57     0  02:38        0.26
  WS02004409           JUNCTION     0.28     0.58     6.35     0  02:38        0.57
  WS02004410           JUNCTION     0.31     0.59     6.31     0  02:38        0.59
  WS02004411           JUNCTION     0.33     0.61     6.29     0  02:39        0.61
  WS02004412           JUNCTION     0.36     0.62     6.26     0  02:39        0.62
  WS02004413           JUNCTION     0.51     0.79     6.26     0  02:39        0.79
  WS02006109           JUNCTION     0.54     0.83     7.45     0  02:23        0.83
  WS02006110           JUNCTION     0.55     0.82     7.41     0  02:32        0.82
  WS02006111           JUNCTION     0.13     0.25     6.96     0  03:06        0.25
  WS02006112           JUNCTION     0.63     0.93     6.82     0  02:30        0.93
  WS02006113           JUNCTION     0.20     0.39     7.29     0  02:38        0.39
  WS02006115           JUNCTION     0.37     0.65     6.78     0  02:36        0.65
  WS02006116           JUNCTION     0.46     0.73     6.77     0  02:36        0.73
  WS02006228           JUNCTION     0.52     0.84     7.49     0  02:22        0.84
  WS02006229           JUNCTION     0.49     0.82     7.52     0  02:22        0.82
  WS02006230           JUNCTION     0.47     0.86     7.60     0  02:22        0.86
  WS02006231           JUNCTION     0.28     0.60     7.72     0  02:39        0.60
  WS02006232           JUNCTION     0.39     0.75     7.79     0  02:15        0.75
  WS02006234           JUNCTION     0.31     0.71     7.87     0  02:15        0.71
  WS02006235           JUNCTION     0.34     0.76     7.93     0  02:14        0.76
  WS02006238           JUNCTION     0.37     0.81     7.95     0  02:17        0.81
  WS02006239           JUNCTION     0.34     0.81     8.02     0  02:13        0.80
  WS02006240           JUNCTION     0.33     0.79     8.08     0  02:15        0.79
  WS02006242           JUNCTION     0.39     0.91     8.17     0  02:13        0.90
  WS02006243           JUNCTION     0.33     0.84     8.26     0  02:13        0.84
  WS02006245           JUNCTION     0.34     0.86     8.34     0  02:18        0.85
  WS02006247           JUNCTION     0.36     0.89     8.39     0  02:13        0.89
  WS02006248           JUNCTION     0.34     0.86     8.44     0  02:47        0.85
  WS02006249           JUNCTION     0.36     1.01     8.60     0  02:15        1.01
  WS02006251           JUNCTION     0.36     0.91     8.58     0  02:13        0.91
  WS02006252           JUNCTION     0.25     1.50     9.74     0  00:00        0.59
  WS02006256           JUNCTION     0.58     2.35     9.28     0  00:00        2.35
  WSF200               JUNCTION     0.12     0.25     5.48     0  02:40        0.25
  YS02001580           JUNCTION     0.07     1.05     9.59     0  02:08        0.77
  YS02001583           JUNCTION     0.10     1.02     9.52     0  02:08        0.82
  YS02001586           JUNCTION     0.17     1.13     9.30     0  02:08        1.13
  YS02001590           JUNCTION     0.26     1.40     9.26     0  02:08        1.37
  YS02001593           JUNCTION     0.20     1.43     9.29     0  02:15        1.43
  YS02001596           JUNCTION     0.37     1.80     9.22     0  02:15        1.80
  YS02001600           JUNCTION     0.59     1.87     9.00     0  02:08        1.86
  YS02001601           JUNCTION     0.84     2.06     8.90     0  02:08        2.06
  YS02001602           JUNCTION     0.76     1.87     8.77     0  02:08        1.87
  YS02001605           JUNCTION     0.72     1.78     8.68     0  02:11        1.78
  YS02001607           JUNCTION     0.72     1.68     8.53     0  02:15        1.68
  YS02001610           JUNCTION     0.76     1.68     8.48     0  02:08        1.68
  YS02001613           JUNCTION     0.72     1.68     8.52     0  02:15        1.68
  YS02001616           JUNCTION     0.66     1.61     8.52     0  02:15        1.61
  YS02001619           JUNCTION     0.64     1.59     8.52     0  02:11        1.58
  YS02001622           JUNCTION     0.65     1.57     8.47     0  02:11        1.55
  YS02001625           JUNCTION     0.90     1.78     8.38     0  02:10        1.78
  YS02001629           JUNCTION     0.92     1.85     8.40     0  02:12        1.85
  YS02001633           JUNCTION     0.99     2.00     8.45     0  02:13        1.96
  YS02001641           JUNCTION     0.98     2.10     8.54     0  02:15        2.10
  YS02001644           JUNCTION     0.98     1.92     8.35     0  02:13        1.92
  YS02001647           JUNCTION     0.79     1.71     8.32     0  02:13        1.69
  YS02001649           JUNCTION     0.94     1.88     8.27     0  02:13        1.82
  YS02001652           JUNCTION     0.77     1.71     8.30     0  02:14        1.64
  YS02001655           JUNCTION     0.59     1.63     8.48     0  02:13        1.41
  YS02001658           JUNCTION     0.38     1.53     8.67     0  02:13        1.15
  YS02001661           JUNCTION     0.21     1.01     8.42     0  02:14        0.91
  YS02001664           JUNCTION     0.05     0.47     8.39     0  02:14        0.46
  YS02001745           JUNCTION     0.10     0.70     8.21     0  02:13        0.63
  YS02001748           JUNCTION     0.41     1.47     8.55     0  02:13        1.07
  YS02001751           JUNCTION     0.55     1.51     8.39     0  02:13        1.25
  YS02001754           JUNCTION     0.74     1.63     8.24     0  02:13        1.58
  YS02001757           JUNCTION     1.02     2.06     8.32     0  02:15        2.06
  YS02001759           JUNCTION     0.94     2.21     8.57     0  02:15        2.21
  YS02001762           JUNCTION     0.91     2.15     8.55     0  02:15        2.15
  YS02001765           JUNCTION     0.88     2.10     8.55     0  02:15        2.10
  YS02001767           JUNCTION     0.85     2.03     8.52     0  02:15        2.03
  YS02001770           JUNCTION     0.85     1.95     8.44     0  02:15        1.95
  YS02001774           JUNCTION     0.92     2.05     8.47     0  02:15        2.05
  YS02001779           JUNCTION     0.69     1.68     8.37     0  02:11        1.68
  YS02001783           JUNCTION     0.46     1.62     7.76     0  02:15        1.62
  YS02001784           JUNCTION     0.51     1.85     7.92     0  02:15        1.85
  YS02001786           JUNCTION     0.51     1.46     7.49     0  02:15        1.46
  YS02001788           JUNCTION     0.52     1.41     7.39     0  02:15        1.41
  YS02001790           JUNCTION     0.75     1.47     7.11     0  02:06        1.40
  YS02001791           JUNCTION     0.85     1.34     6.81     0  02:15        1.28
  YS02001793           JUNCTION     1.30     2.05     6.88     0  02:15        2.05
  YS02001882           JUNCTION     0.28     1.77     8.48     0  02:15        1.62
  YS02001884           JUNCTION     0.36     1.84     8.46     0  02:15        1.71
  YS02001887           JUNCTION     0.44     1.87     8.41     0  02:15        1.81
  YS02001890           JUNCTION     0.47     1.81     8.32     0  02:11        1.81
  YS02001895           JUNCTION     0.25     1.61     8.35     0  02:15        1.56
  YS02001898           JUNCTION     0.26     1.63     8.36     0  02:15        1.56
  YS02001901           JUNCTION     0.36     1.74     8.35     0  02:15        1.74
  YS02001904           JUNCTION     0.35     1.66     8.29     0  02:15        1.63
  YS02001907           JUNCTION     0.66     1.96     8.25     0  02:11        1.96
  YS02001910           JUNCTION     0.46     2.00     8.51     0  02:11        1.95
  YS02001915           JUNCTION     0.28     1.96     8.67     0  02:11        1.89
  YS02001918           JUNCTION     0.14     1.81     8.88     0  02:11        1.81
  YS02001920           JUNCTION     0.22     2.14     9.15     0  02:11        1.99
  YS02001923           JUNCTION     0.10     2.03     9.29     0  02:11        1.85
  YS02001926           JUNCTION     0.14     1.90     9.35     0  02:11        1.74
  YS02001929           JUNCTION     0.07     1.78     9.47     0  02:11        1.53
  YS02006553           JUNCTION     0.66     2.02     8.30     0  02:15        1.97
  YS02006556           JUNCTION     0.63     2.05     8.36     0  02:15        1.94
  YS02006558           JUNCTION     0.68     2.09     8.35     0  02:15        1.99
  YS02006561           JUNCTION     0.15     1.15     7.81     0  02:15        1.10
  YS02163301           JUNCTION     0.94     1.92     8.44     0  02:15        1.90
  YS02163601           JUNCTION     1.03     2.03     8.43     0  02:13        2.01
  YS02164001           JUNCTION     0.97     1.95     8.41     0  02:13        1.92
  CC-1                 OUTFALL      0.00     0.00     0.00     0  00:00        0.00
  CC-2                 OUTFALL      0.00     0.00     0.00     0  00:00        0.00
  JK-1                 OUTFALL      0.00     0.00     0.00     0  00:00        0.00
  JK-2                 OUTFALL      0.00     0.00     0.00     0  00:00        0.00
  WSC                  OUTFALL      0.29     0.37     1.04     0  02:42        0.37
  CC-storage           STORAGE      1.61     2.14     7.64     0  07:35        2.14
  JK-storage           STORAGE      4.45     5.80     6.60     0  02:06        5.80
  XR-storage           STORAGE      0.29     5.00     3.00     0  00:00        4.91
  
  
  *******************
  Node Inflow Summary
  *******************
  
  -------------------------------------------------------------------------------------------------
                                  Maximum  Maximum                  Lateral       Total        Flow
                                  Lateral    Total  Time of Max      Inflow      Inflow     Balance
                                   Inflow   Inflow   Occurrence      Volume      Volume       Error
  Node                 Type           LPS      LPS  days hr:min    10^6 ltr    10^6 ltr     Percent
  -------------------------------------------------------------------------------------------------
  WS02001211           JUNCTION      7.35   389.12     0  03:33       0.212        11.1       0.348
  WS02001212           JUNCTION      0.00   390.84     0  03:36           0        11.1       0.207
  WS02001213           JUNCTION      0.00   392.59     0  03:35           0        11.1       0.238
  WS02003059           JUNCTION      0.00   395.63     0  03:35           0          11       0.328
  WS02003060           JUNCTION     16.53   816.15     0  02:40       0.476        14.2       0.152
  WS02003066           JUNCTION      0.00   411.98     0  02:40           0        2.72       0.049
  WS02003067           JUNCTION      0.00   411.97     0  02:39           0        2.72       0.155
  WS02003069           JUNCTION      0.32   816.43     0  02:40     0.00922        14.2       0.161
  WS02003072           JUNCTION      0.00   816.40     0  02:41           0        14.1       0.210
  WS02003073           JUNCTION      1.82   818.20     0  02:41      0.0524        14.2       0.225
  WS02004138           JUNCTION      0.00   380.00     0  00:00           0        10.9       0.059
  WS02004139           JUNCTION      0.32   395.52     0  00:00     0.00924        10.9       0.407
  WS02004401           JUNCTION      0.00   412.24     0  02:36           0        2.84       0.461
  WS02004402           JUNCTION      0.00   412.15     0  02:37           0        2.82       0.437
  WS02004403           JUNCTION      0.00   412.14     0  02:37           0        2.81       0.409
  WS02004404           JUNCTION      0.16   412.28     0  02:37     0.00467         2.8       0.330
  WS02004405           JUNCTION      0.04   412.34     0  02:37      0.0011         2.8       0.492
  WS02004406           JUNCTION      0.00   412.34     0  02:37           0        2.78       0.817
  WS02004407           JUNCTION      0.00   412.20     0  02:37           0        2.76       0.073
  WS02004409           JUNCTION      0.00   412.14     0  02:38           0        2.76       0.129
  WS02004410           JUNCTION      0.00   412.12     0  02:38           0        2.75       0.177
  WS02004411           JUNCTION      0.00   412.07     0  02:38           0        2.75       0.214
  WS02004412           JUNCTION      0.00   412.05     0  02:39           0        2.74       0.283
  WS02004413           JUNCTION      0.00   412.06     0  02:39           0        2.74       0.501
  WS02006109           JUNCTION      1.23   411.77     0  02:31      0.0354        2.93       0.533
  WS02006110           JUNCTION      0.00   411.77     0  02:31           0        2.91       0.613
  WS02006111           JUNCTION      0.00   423.36     0  02:45           0        2.89       0.151
  WS02006112           JUNCTION      0.00   413.95     0  03:06           0        2.88       0.864
  WS02006113           JUNCTION      0.00   412.05     0  02:30           0         2.9       0.298
  WS02006115           JUNCTION      0.00   412.36     0  02:36           0        2.86       0.438
  WS02006116           JUNCTION      0.00   412.19     0  02:36           0        2.85       0.314
  WS02006228           JUNCTION      0.00   410.54     0  02:31           0         2.9       0.342
  WS02006229           JUNCTION      0.00   410.53     0  02:31           0        2.91       0.397
  WS02006230           JUNCTION     10.28   410.66     0  02:22       0.296        2.93       0.376
  WS02006231           JUNCTION      0.00   400.60     0  02:26           0        2.64       0.362
  WS02006232           JUNCTION      0.00   400.58     0  02:27           0        2.66       0.825
  WS02006234           JUNCTION      0.00   401.72     0  02:11           0        2.66       0.066
  WS02006235           JUNCTION      0.00   402.33     0  02:26           0        2.69       0.563
  WS02006238           JUNCTION      0.00   401.67     0  02:26           0        2.66      -0.348
  WS02006239           JUNCTION      0.00   401.61     0  02:11           0        2.66       0.004
  WS02006240           JUNCTION      0.00   401.15     0  02:26           0        2.65       0.133
  WS02006242           JUNCTION      0.00   401.40     0  02:15           0        2.66       0.338
  WS02006243           JUNCTION      0.00   401.97     0  02:15           0        2.66       0.109
  WS02006245           JUNCTION      0.00   403.55     0  02:28           0        2.69       0.840
  WS02006247           JUNCTION      0.00   400.93     0  02:22           0        2.69       0.123
  WS02006248           JUNCTION      0.00   403.17     0  02:15           0        2.69       0.186
  WS02006249           JUNCTION      0.00   465.52     0  07:51           0        2.71       0.636
  WS02006251           JUNCTION      0.08   403.37     0  07:51     0.00222        2.71       0.018
  WS02006252           JUNCTION      0.00   400.00     0  00:00           0        2.71      -0.103
  WS02006256           JUNCTION      0.00   300.00     0  00:00           0      0.0243      -5.571
  WSF200               JUNCTION      0.00   411.97     0  02:40           0        2.72       0.023
  YS02001580           JUNCTION      0.00   116.90     0  02:08           0     0.00416      -0.919
  YS02001583           JUNCTION      0.00   172.09     0  02:08           0       0.015      -5.135
  YS02001586           JUNCTION    482.97   482.97     0  02:15        1.02        1.03       0.129
  YS02001590           JUNCTION      0.00   318.13     0  02:20           0       0.933      -0.005
  YS02001593           JUNCTION      0.00   318.14     0  02:18           0       0.933       0.049
  YS02001596           JUNCTION      0.00   318.22     0  02:20           0       0.933       0.060
  YS02001600           JUNCTION      0.00   318.16     0  02:23           0       0.934       0.517
  YS02001601           JUNCTION    848.82  1166.45     0  02:14        1.38        2.31       0.381
  YS02001602           JUNCTION      0.00   519.81     0  02:08           0        1.69       0.548
  YS02001605           JUNCTION      0.00   519.52     0  02:08           0        1.61       0.860
  YS02001607           JUNCTION      0.00   519.18     0  02:08           0         1.6       1.092
  YS02001610           JUNCTION      0.00   521.85     0  02:07           0        1.59       1.158
  YS02001613           JUNCTION      0.00   522.61     0  02:07           0        1.38       1.371
  YS02001616           JUNCTION      0.00   520.70     0  02:07           0        1.37       1.158
  YS02001619           JUNCTION    835.87   935.13     0  02:10        1.57        2.93       0.533
  YS02001622           JUNCTION      0.00   933.74     0  02:10           0        2.91       0.762
  YS02001625           JUNCTION      0.00   933.88     0  02:10           0         2.9       1.498
  YS02001629           JUNCTION      0.00   934.91     0  02:10           0         2.5       0.729
  YS02001633           JUNCTION    655.41  1384.26     0  02:10        1.04        3.49       0.919
  YS02001641           JUNCTION      0.00  1383.73     0  02:10           0        3.42       0.617
  YS02001644           JUNCTION    561.23  1796.65     0  02:10       0.854        4.25       0.613
  YS02001647           JUNCTION      0.00  1796.44     0  02:10           0         4.2       0.629
  YS02001649           JUNCTION      0.00  2058.07     0  02:10           0        4.95       0.755
  YS02001652           JUNCTION      0.00   665.06     0  02:14           0       0.802       2.641
  YS02001655           JUNCTION      0.15   663.00     0  02:14     0.00443       0.828       2.066
  YS02001658           JUNCTION      0.00   670.60     0  02:13           0        0.86       1.103
  YS02001661           JUNCTION      0.00   748.29     0  02:14           0       0.844       0.277
  YS02001664           JUNCTION    566.25   566.25     0  02:13       0.809       0.809      -0.024
  YS02001745           JUNCTION    347.31   402.38     0  02:13       0.468       0.474       0.515
  YS02001748           JUNCTION      0.04   559.66     0  02:13      0.0013       0.489       1.540
  YS02001751           JUNCTION      0.01   400.61     0  02:14    0.000317       0.493       3.748
  YS02001754           JUNCTION      0.26   401.55     0  02:14     0.00749       0.481       4.689
  YS02001757           JUNCTION      0.00  3241.52     0  02:14           0        6.87       1.391
  YS02001759           JUNCTION    505.68  1207.51     0  02:13       0.683        1.56       1.485
  YS02001762           JUNCTION      0.00   704.32     0  02:12           0       0.895       2.420
  YS02001765           JUNCTION      0.00   700.64     0  02:12           0        0.92       2.757
  YS02001767           JUNCTION      0.54   699.10     0  02:12      0.0154       0.955       3.851
  YS02001770           JUNCTION    687.77   692.34     0  02:13        1.01        1.04       3.157
  YS02001774           JUNCTION      0.00   288.73     0  02:11           0      0.0884      40.404
  YS02001779           JUNCTION      0.01   251.99     0  02:11    0.000144      0.0374      57.631
  YS02001783           JUNCTION      0.00   978.28     0  02:15           0        2.65       0.250
  YS02001784           JUNCTION      1.06   977.24     0  02:15      0.0305        2.67       0.404
  YS02001786           JUNCTION      0.06   975.98     0  02:12     0.00162        2.66       0.504
  YS02001788           JUNCTION      0.07   975.49     0  02:12     0.00204        2.65       0.517
  YS02001790           JUNCTION      0.15   979.47     0  02:15     0.00446        2.64       0.629
  YS02001791           JUNCTION      0.00   987.48     0  02:15           0        2.63       0.560
  YS02001793           JUNCTION      0.00   987.64     0  02:15           0        2.61       0.593
  YS02001882           JUNCTION      0.00    59.83     0  02:10           0      0.0125       5.195
  YS02001884           JUNCTION      0.00   115.29     0  02:08           0      0.0485       5.893
  YS02001887           JUNCTION    541.49   541.52     0  02:13       0.713       0.746       0.596
  YS02001890           JUNCTION      0.00   542.03     0  02:13           0       0.705       0.719
  YS02001895           JUNCTION      0.00   506.32     0  02:14           0       0.692       0.177
  YS02001898           JUNCTION      0.00   506.47     0  02:14           0       0.691       0.036
  YS02001901           JUNCTION      0.00   506.32     0  02:14           0       0.694       0.461
  YS02001904           JUNCTION      0.00   506.37     0  02:14           0       0.698       0.400
  YS02001907           JUNCTION      0.00  1484.13     0  02:12           0        2.14       0.844
  YS02001910           JUNCTION      0.00   999.41     0  02:12           0        1.45       0.488
  YS02001915           JUNCTION    568.61   997.77     0  02:12       0.872        1.49       0.086
  YS02001918           JUNCTION      0.00   561.77     0  02:10           0       0.656       0.002
  YS02001920           JUNCTION      2.87   473.26     0  02:11      0.0827       0.636       0.115
  YS02001923           JUNCTION      0.04   529.79     0  02:10     0.00109       0.535      -0.215
  YS02001926           JUNCTION      0.05   744.07     0  02:11      0.0015       0.511      -0.212
  YS02001929           JUNCTION    291.88   634.62     0  02:11       0.491       0.495      -0.018
  YS02006553           JUNCTION      0.00   675.91     0  02:24           0        1.71       0.701
  YS02006556           JUNCTION      0.00   675.67     0  02:24           0        1.71       0.474
  YS02006558           JUNCTION    688.00   986.78     0  02:15       0.986        2.68       0.148
  YS02006561           JUNCTION      0.00   978.93     0  02:15           0        2.65      -0.006
  YS02163301           JUNCTION      0.00   936.25     0  02:10           0        2.48       0.972
  YS02163601           JUNCTION      0.11  1384.14     0  02:10     0.00317        3.46       0.871
  YS02164001           JUNCTION      0.00  1383.66     0  02:10           0        3.43       0.579
  CC-1                 OUTFALL       0.00   683.00     0  00:00           0       0.208       0.000
  CC-2                 OUTFALL       0.00   683.00     0  00:00           0       0.208       0.000
  JK-1                 OUTFALL       0.00  1000.00     0  00:00           0      0.0791       0.000
  JK-2                 OUTFALL       0.00  1000.00     0  00:00           0      0.0791       0.000
  WSC                  OUTFALL       0.00   818.18     0  02:42           0        14.1       0.000
  CC-storage           STORAGE       0.00  3241.82     0  02:13           0        8.98       0.428
  JK-storage           STORAGE       0.00   997.98     0  02:15           0        2.75       0.587
  XR-storage           STORAGE     200.00   200.00     0  00:00        5.76        6.36     -41.886
  
  
  **********************
  Node Surcharge Summary
  **********************
  
  Surcharging occurs when water rises above the top of the highest conduit.
  ---------------------------------------------------------------------
                                               Max. Height   Min. Depth
                                   Hours       Above Crown    Below Rim
  Node                 Type      Surcharged         Meters       Meters
  ---------------------------------------------------------------------
  WS02006109           JUNCTION        1.28          0.015        1.805
  WS02006228           JUNCTION        1.27          0.013        2.187
  WS02006229           JUNCTION        1.29          0.024        2.426
  WS02006232           JUNCTION        1.35          0.050        1.430
  WS02006235           JUNCTION        1.29          0.055        1.235
  WS02006238           JUNCTION        1.32          0.087        1.343
  WS02006239           JUNCTION        1.30          0.068        1.222
  WS02006240           JUNCTION        1.30          0.082        1.308
  WS02006242           JUNCTION        1.39          0.175        0.645
  WS02006243           JUNCTION        1.32          0.134        0.636
  WS02006245           JUNCTION        1.32          0.146        0.704
  WS02006247           JUNCTION        1.33          0.180        0.580
  WS02006248           JUNCTION        1.31          0.137        0.243
  WS02006249           JUNCTION        1.33          0.306        0.084
  WS02006252           JUNCTION        1.84          1.100        0.000
  WS02006256           JUNCTION        3.07          2.050        0.000
  YS02001580           JUNCTION        0.34          0.450        0.000
  YS02001583           JUNCTION        0.35          0.382        0.118
  YS02001586           JUNCTION        0.48          0.510        0.000
  YS02001590           JUNCTION        0.55          0.750        0.000
  YS02001593           JUNCTION        0.55          0.813        0.027
  YS02001596           JUNCTION        0.67          1.070        0.000
  YS02001600           JUNCTION        0.91          1.190        0.000
  YS02001601           JUNCTION        6.10          1.440        0.000
  YS02001602           JUNCTION        6.05          1.270        0.000
  YS02001605           JUNCTION        6.03          1.180        0.000
  YS02001607           JUNCTION        0.61          0.680        0.000
  YS02001610           JUNCTION        0.65          0.680        0.000
  YS02001613           JUNCTION        0.61          0.681        0.019
  YS02001616           JUNCTION        0.55          0.610        0.000
  YS02001619           JUNCTION        0.53          0.590        0.020
  YS02001622           JUNCTION        0.55          0.566        0.054
  YS02001625           JUNCTION        5.17          0.780        0.000
  YS02001629           JUNCTION        0.49          0.470        0.000
  YS02001633           JUNCTION        5.90          0.979        0.081
  YS02001641           JUNCTION        5.88          1.100        0.000
  YS02001644           JUNCTION        5.87          0.920        0.000
  YS02001647           JUNCTION        4.81          0.706        0.194
  YS02001649           JUNCTION        5.83          0.885        0.165
  YS02001652           JUNCTION        3.34          0.677        0.453
  YS02001655           JUNCTION        0.21          0.633        0.567
  YS02001658           JUNCTION        0.05          0.527        0.773
  YS02001748           JUNCTION        0.01          0.390        0.800
  YS02001751           JUNCTION        0.09          0.508        0.692
  YS02001754           JUNCTION        0.33          0.580        0.570
  YS02001757           JUNCTION        5.82          1.063        0.147
  YS02001759           JUNCTION        5.81          1.210        0.000
  YS02001762           JUNCTION        5.81          1.150        0.000
  YS02001765           JUNCTION        5.81          1.100        0.000
  YS02001767           JUNCTION        5.81          1.030        0.000
  YS02001770           JUNCTION        5.81          0.920        0.000
  YS02001774           JUNCTION        5.81          1.050        0.000
  YS02001779           JUNCTION        0.29          0.680        0.000
  YS02001783           JUNCTION        0.49          0.821        0.779
  YS02001784           JUNCTION        0.49          1.051        0.439
  YS02001786           JUNCTION        0.49          0.662        0.768
  YS02001788           JUNCTION        0.49          0.615        0.865
  YS02001790           JUNCTION        5.90          0.668        0.489
  YS02001791           JUNCTION        5.90          0.543        1.377
  YS02001793           JUNCTION        5.92          1.047        1.553
  YS02001882           JUNCTION        0.32          0.766        0.064
  YS02001884           JUNCTION        0.33          0.782        0.088
  YS02001887           JUNCTION        0.36          0.820        0.130
  YS02001890           JUNCTION        0.37          0.760        0.000
  YS02001895           JUNCTION        0.31          0.607        0.143
  YS02001898           JUNCTION        0.31          0.597        0.143
  YS02001901           JUNCTION        0.35          0.738        0.132
  YS02001904           JUNCTION        0.34          0.662        0.188
  YS02001907           JUNCTION        0.53          0.950        0.000
  YS02001910           JUNCTION        0.39          1.004        0.096
  YS02001915           JUNCTION        0.32          0.957        0.043
  YS02001918           JUNCTION        0.24          0.810        0.000
  YS02001920           JUNCTION        0.26          1.140        0.000
  YS02001923           JUNCTION        0.01          0.820        0.000
  YS02001926           JUNCTION        0.01          0.900        0.000
  YS02001929           JUNCTION        0.01          0.780        0.000
  YS02006553           JUNCTION        0.54          1.018        0.172
  YS02006556           JUNCTION        0.46          1.008        0.342
  YS02006558           JUNCTION        0.45          0.985        0.415
  YS02006561           JUNCTION        0.28          0.346        0.804
  YS02163301           JUNCTION        5.90          0.920        0.110
  YS02163601           JUNCTION        5.91          1.030        0.050
  YS02164001           JUNCTION        5.89          0.951        0.149
  
  
  *********************
  Node Flooding Summary
  *********************
  
  Flooding refers to all water that overflows a node, whether it ponds or not.
  --------------------------------------------------------------------------
                                                             Total   Maximum
                                 Maximum   Time of Max       Flood    Ponded
                        Hours       Rate    Occurrence      Volume     Depth
  Node                 Flooded       LPS   days hr:min    10^6 ltr    Meters
  --------------------------------------------------------------------------
  WS02006252              0.01    245.63      0  00:00       0.000     0.000
  WS02006256              0.02    293.19      0  00:00       0.005     0.000
  YS02001580              0.01     96.24      0  02:08       0.000     0.000
  YS02001586              0.26    167.55      0  02:15       0.085     0.000
  YS02001590              0.01      6.99      0  02:08       0.000     0.000
  YS02001596              0.01      0.48      0  02:15       0.000     0.000
  YS02001600              0.01      5.55      0  02:15       0.000     0.000
  YS02001601              0.42    768.48      0  02:14       0.616     0.000
  YS02001602              0.34     62.06      0  02:17       0.065     0.000
  YS02001605              0.01      0.36      0  02:11       0.000     0.000
  YS02001607              0.01      0.17      0  02:15       0.000     0.000
  YS02001610              0.27    328.56      0  02:15       0.191     0.000
  YS02001616              0.01      1.06      0  02:15       0.000     0.000
  YS02001625              0.25    902.01      0  02:15       0.360     0.000
  YS02001629              0.05     85.37      0  02:13       0.009     0.000
  YS02001641              0.01      1.02      0  02:15       0.000     0.000
  YS02001644              0.04    180.78      0  02:14       0.014     0.000
  YS02001759              0.01      2.09      0  02:15       0.000     0.000
  YS02001762              0.01      0.18      0  02:15       0.000     0.000
  YS02001765              0.01      1.46      0  02:15       0.000     0.000
  YS02001767              0.01      1.44      0  02:15       0.000     0.000
  YS02001770              0.01      3.12      0  02:15       0.000     0.000
  YS02001774              0.01      2.51      0  02:15       0.000     0.000
  YS02001779              0.01    163.88      0  02:11       0.002     0.000
  YS02001890              0.06     74.88      0  02:15       0.008     0.000
  YS02001907              0.20   1185.21      0  02:13       0.416     0.000
  YS02001918              0.01    264.45      0  02:12       0.003     0.000
  YS02001920              0.01     63.68      0  02:11       0.000     0.000
  YS02001923              0.01    338.83      0  02:11       0.002     0.000
  YS02001926              0.01     50.52      0  02:11       0.000     0.000
  YS02001929              0.01    202.79      0  02:11       0.001     0.000
  JK-storage              5.89    994.37      0  02:15       2.258     0.000
  
  
  **********************
  Storage Volume Summary
  **********************
  
  ------------------------------------------------------------------------------------------------
                         Average    Avg   Evap  Exfil     Maximum    Max    Time of Max    Maximum
                          Volume   Pcnt   Pcnt   Pcnt      Volume   Pcnt     Occurrence    Outflow
  Storage Unit           1000 m³   Full   Loss   Loss     1000 m³   Full    days hr:min        LPS
  ------------------------------------------------------------------------------------------------
  CC-storage               4.492   70.1    0.0    0.0       5.953   92.9       0  07:35    1783.53
  JK-storage               0.223   76.7    0.0    0.0       0.291  100.0       0  02:06    2300.00
  XR-storage               0.035    2.4    0.0    0.0       0.600   41.7       0  00:00     380.00
  
  
  ***********************
  Outfall Loading Summary
  ***********************
  
  -----------------------------------------------------------
                         Flow       Avg       Max       Total
                         Freq      Flow      Flow      Volume
  Outfall Node           Pcnt       LPS       LPS    10^6 ltr
  -----------------------------------------------------------
  CC-1                   1.28    683.00    683.00       0.208
  CC-2                   1.28    683.00    683.00       0.208
  JK-1                   1.19    347.46   1000.00       0.079
  JK-2                   1.19    347.46   1000.00       0.079
  WSC                   99.92    534.62    818.18      14.138
  -----------------------------------------------------------
  System                20.98   2595.55   3366.35      14.713
  
  
  ********************
  Link Flow Summary
  ********************
  
  -----------------------------------------------------------------------------
                                 Maximum  Time of Max   Maximum    Max/    Max/
                                  |Flow|   Occurrence   |Veloc|    Full    Full
  Link                 Type          LPS  days hr:min     m/sec    Flow   Depth
  -----------------------------------------------------------------------------
  1                    CONDUIT    818.18     0  02:42      3.15    0.28    0.37
  WS02001211WS02001212 CONDUIT    390.84     0  03:36      0.78    0.30    0.64
  WS02001212WS02001213 CONDUIT    392.59     0  03:35      1.32    0.61    0.45
  WS02001213WS02003059 CONDUIT    395.63     0  03:35      0.85    0.65    0.75
  WS02003059WS02003060 CONDUIT    399.91     0  03:35      0.95    0.26    0.63
  WS02003060WS02003069 CONDUIT    816.11     0  02:40      1.80    0.32    0.42
  WS02003066WSF200     CONDUIT    411.97     0  02:40      2.69    0.07    0.19
  WS02003067WS02003066 CONDUIT    411.98     0  02:40      1.04    0.13    0.38
  WS02003069WS02003072 CONDUIT    816.40     0  02:41      1.55    0.39    0.47
  WS02003072WS02003073 CONDUIT    816.38     0  02:41      1.64    1.76    0.45
  WS02004138WS02004139 CONDUIT    395.20     0  00:00      3.65    0.08    0.43
  WS02004139WS02001211 CONDUIT    381.78     0  03:33      0.91    0.48    0.59
  WS02004401WS02004402 CONDUIT    412.15     0  02:37      0.99    0.49    0.77
  WS02004402WS02004403 CONDUIT    412.14     0  02:37      0.99    0.59    0.79
  WS02004403WS02004404 CONDUIT    412.11     0  02:37      0.93    0.30    0.84
  WS02004404WS02004405 CONDUIT    412.30     0  02:37      1.10    4.04    0.88
  WS02004405WS02004406 CONDUIT    412.34     0  02:37      1.03    0.81    0.88
  WS02004406WS02004407 CONDUIT    412.20     0  02:37      0.89    0.18    0.57
  WS02004407WS02004409 CONDUIT    412.14     0  02:38      1.36    0.15    0.42
  WS02004409WS02004410 CONDUIT    412.12     0  02:38      0.88    0.53    0.58
  WS02004410WS02004411 CONDUIT    412.07     0  02:38      0.84    0.56    0.60
  WS02004411WS02004412 CONDUIT    412.05     0  02:39      0.81    0.59    0.61
  WS02004412WS02004413 CONDUIT    412.06     0  02:39      0.70    0.28    0.70
  WS02004413WS02003067 CONDUIT    411.97     0  02:39      0.96    0.18    0.54
  WS02006109WS02006110 CONDUIT    411.77     0  02:31      0.84    0.79    0.94
  WS02006110WS02006113 CONDUIT    412.05     0  02:30      1.03    0.37    0.75
  WS02006111WS02006112 CONDUIT    413.95     0  03:06      1.83    0.20    0.65
  WS02006112WS02006115 CONDUIT    412.36     0  02:36      0.70    0.24    0.78
  WS02006113WS02006111 CONDUIT    423.36     0  02:45      2.25    0.51    0.40
  WS02006115WS02006116 CONDUIT    412.19     0  02:36      0.98    0.53    0.66
  WS02006116WS02004401 CONDUIT    412.24     0  02:36      1.00    0.57    0.74
  WS02006228WS02006109 CONDUIT    410.54     0  02:31      1.06    1.79    1.00
  WS02006229WS02006228 CONDUIT    410.54     0  02:31      1.13    1.36    1.00
  WS02006230WS02006229 CONDUIT    410.53     0  02:31      1.22    9.14    1.00
  WS02006231WS02006230 CONDUIT    400.38     0  02:22      1.37    6.07    0.77
  WS02006232WS02006231 CONDUIT    400.60     0  02:26      1.08    0.84    0.92
  WS02006234WS02006232 CONDUIT    400.58     0  02:27      1.40    0.81    1.00
  WS02006235WS02006234 CONDUIT    401.72     0  02:11      1.30    4.24    0.99
  WS02006238WS02006235 CONDUIT    402.33     0  02:26      1.48    0.90    1.00
  WS02006239WS02006238 CONDUIT    401.67     0  02:26      1.21    1.29    1.00
  WS02006240WS02006239 CONDUIT    401.61     0  02:11      1.30    1.26    1.00
  WS02006242WS02006240 CONDUIT    401.15     0  02:26      1.17    1.59    1.00
  WS02006243WS02006242 CONDUIT    401.40     0  02:15      1.43    0.86    1.00
  WS02006245WS02006243 CONDUIT    401.97     0  02:15      1.45    1.19    1.00
  WS02006247WS02006245 CONDUIT    403.55     0  02:28      1.43    3.20    1.00
  WS02006248WS02006247 CONDUIT    400.93     0  02:22      1.45    0.87    1.00
  WS02006249WS02006248 CONDUIT    403.17     0  02:15      1.41    2.21    1.00
  WS02006251WS02006249 CONDUIT    465.52     0  07:51      1.99    1.34    1.00
  WS02006252WS02006251 CONDUIT    403.29     0  07:51     25.76    1.48    1.00
  WS02006256WS02006235 CONDUIT    288.91     0  00:00      4.23    3.06    1.00
  WSF200WS02003060     CONDUIT    411.97     0  02:40      1.43    0.09    0.30
  YS02001580YS02001583 CONDUIT    116.90     0  02:08      0.68    0.45    1.00
  YS02001583YS02001586 CONDUIT    170.36     0  02:08      0.71    0.26    1.00
  YS02001586YS02001590 CONDUIT    318.13     0  02:20      1.27    0.56    1.00
  YS02001590YS02001593 CONDUIT    318.14     0  02:18      1.13    2.00    1.00
  YS02001593YS02001596 CONDUIT    318.22     0  02:20      1.62    0.50    1.00
  YS02001596YS02001600 CONDUIT    318.16     0  02:23      1.13    0.62    1.00
  YS02001600YS02001601 CONDUIT    318.04     0  02:21      1.12    0.55    1.00
  YS02001601YS02001602 CONDUIT    519.81     0  02:08      1.84    1.88    1.00
  YS02001602YS02001605 CONDUIT    519.52     0  02:08      1.84   10.99    1.00
  YS02001605YS02001607 CONDUIT    519.18     0  02:08      1.84    2.85    1.00
  YS02001607YS02001610 CONDUIT    521.85     0  02:07      0.66    0.50    1.00
  YS02001610YS02001613 CONDUIT    522.61     0  02:07      0.67    0.60    1.00
  YS02001613YS02001616 CONDUIT    520.70     0  02:07      0.67    0.45    1.00
  YS02001616YS02001619 CONDUIT    494.40     0  02:08      0.66    0.86    1.00
  YS02001619YS02001622 CONDUIT    933.74     0  02:10      1.20    1.38    1.00
  YS02001622YS02001625 CONDUIT    933.88     0  02:10      1.19    0.50    1.00
  YS02001625YS02001629 CONDUIT    934.91     0  02:10      1.19    0.44    1.00
  YS02001629YS02163301 CONDUIT    936.25     0  02:10      1.19    1.15    1.00
  YS02001633YS02163601 CONDUIT   1384.03     0  02:10      1.76    1.45    1.00
  YS02001641YS02001644 CONDUIT   1383.27     0  02:10      1.76    4.47    1.00
  YS02001644YS02001647 CONDUIT   1796.44     0  02:10      2.30    1.06    1.00
  YS02001647YS02001649 CONDUIT   1794.57     0  02:11      2.36    0.95    1.00
  YS02001649YS02001757 CONDUIT   2033.69     0  02:11      2.59    1.23    1.00
  YS02001652YS02001649 CONDUIT    667.89     0  02:14      0.85    0.33    1.00
  YS02001655YS02001652 CONDUIT    665.06     0  02:14      1.32    0.32    1.00
  YS02001658YS02001655 CONDUIT    662.84     0  02:14      1.92    0.28    1.00
  YS02001661YS02001658 CONDUIT    670.60     0  02:13      2.35    0.26    0.97
  YS02001664YS02001661 CONDUIT    748.29     0  02:14      2.36    0.23    0.69
  YS02001745YS02001748 CONDUIT    559.62     0  02:13      2.19    0.22    0.83
  YS02001748YS02001751 CONDUIT    400.60     0  02:14      1.68    0.20    1.00
  YS02001751YS02001754 CONDUIT    401.29     0  02:14      1.41    0.19    1.00
  YS02001754YS02001757 CONDUIT    402.42     0  02:14      0.51    0.16    1.00
  YS02001757CaochengTiaoxuchi CONDUIT   3241.82     0  02:13      4.13    1.40    1.00
  YS02001759YS02001757 CONDUIT   1208.74     0  02:13      1.54    0.86    1.00
  YS02001762YS02001759 CONDUIT    709.08     0  02:12      0.90    0.82    1.00
  YS02001765YS02001762 CONDUIT    704.32     0  02:12      0.90    0.66    1.00
  YS02001767YS02001765 CONDUIT    700.64     0  02:12      0.89    0.88    1.00
  YS02001770YS02001767 CONDUIT    698.57     0  02:12      0.89    2.77    1.00
  YS02001774YS02001770 CONDUIT    288.73     0  02:11      0.37    0.18    1.00
  YS02001779YS02001774 CONDUIT    251.98     0  02:11      0.33    0.13    1.00
  YS02001783YS02001784 CONDUIT    976.18     0  02:15      1.94    1.35    1.00
  YS02001784YS02001785 CONDUIT    975.93     0  02:12      1.94    2.27    1.00
  YS02001786YS02001788 CONDUIT    975.42     0  02:12      2.08    1.88    1.00
  YS02001788YS02001790 CONDUIT    979.31     0  02:15      2.13    0.72    1.00
  YS02001790YS02001791 CONDUIT    987.48     0  02:15      2.48    1.07    1.00
  YS02001791YS02001793 CONDUIT    987.64     0  02:15      4.74    0.42    1.00
  YS02001793JiankangQianchi CONDUIT    997.98     0  02:15      1.54    0.08    1.00
  YS02001882YS02001884 CONDUIT     59.83     0  02:10      0.10    0.07    1.00
  YS02001884YS02001887 CONDUIT    115.29     0  02:08      0.15    0.15    1.00
  YS02001887YS02001890 CONDUIT    542.03     0  02:13      0.69    0.93    1.00
  YS02001890YS02001895 CONDUIT    506.32     0  02:14      0.64    0.24    1.00
  YS02001895YS02001898 CONDUIT    506.47     0  02:14      0.64    0.88    1.00
  YS02001898YS02001901 CONDUIT    506.32     0  02:14      0.64    0.33    1.00
  YS02001901YS02001904 CONDUIT    506.37     0  02:14      0.64    0.79    1.00
  YS02001904YS02001907 CONDUIT    506.69     0  02:14      0.65    0.18    1.00
  YS02001907YS02006553 CONDUIT    675.91     0  02:24      0.75    0.80    1.00
  YS02001910YS02001907 CONDUIT    999.64     0  02:12      1.27    0.56    1.00
  YS02001915YS02001910 CONDUIT    999.41     0  02:12      1.27    0.50    1.00
  YS02001918YS02001915 CONDUIT    561.77     0  02:10      0.74    0.31    1.00
  YS02001920YS02001918 CONDUIT    470.39     0  02:11      0.64    0.46    1.00
  YS02001923YS02001920 CONDUIT    471.29     0  02:11      0.73    0.21    1.00
  YS02001926YS02001923 CONDUIT    541.35     0  02:11      0.97    0.77    1.00
  YS02001929YS02001926 CONDUIT    416.46     0  02:12      1.15    0.20    1.00
  YS02006553YS02006556 CONDUIT    675.67     0  02:24      0.86    0.58    1.00
  YS02006556YS02006558 CONDUIT    677.72     0  02:24      0.86    0.54    1.00
  YS02006558YS02006561 CONDUIT    978.93     0  02:15      3.46    2.16    1.00
  YS02006561YS02001783 CONDUIT    978.28     0  02:15      2.10    0.51    1.00
  YS02163301YS02001633 CONDUIT    935.68     0  02:10      1.19    0.88    1.00
  YS02163601YS02164001 CONDUIT   1383.66     0  02:10      1.76    1.23    1.00
  YS02164001YS02001641 CONDUIT   1383.73     0  02:10      1.76    1.89    1.00
  CC-R1                PUMP       683.00     0  00:00              1.00
  CC-R2                PUMP       683.00     0  00:00              1.00
  CC-S1                PUMP       200.00     0  00:00              1.00
  CC-S2                PUMP       200.00     0  00:00              1.00
  JK-R1                PUMP      1000.00     0  00:00              1.00
  JK-R2                PUMP      1000.00     0  00:00              1.00
  JK-S                 PUMP       300.00     0  00:00              1.00
  XR-1                 PUMP        95.00     0  00:00              1.00
  XR-2                 PUMP        95.00     0  00:00              1.00
  XR-3                 PUMP        95.00     0  00:00              1.00
  XR-4                 PUMP        95.00     0  00:00              1.00
  
  
  ***************************
  Flow Classification Summary
  ***************************
  
  -------------------------------------------------------------------------------------
                      Adjusted    ---------- Fraction of Time in Flow Class ---------- 
                       /Actual         Up    Down  Sub   Sup   Up    Down  Norm  Inlet 
  Conduit               Length    Dry  Dry   Dry   Crit  Crit  Crit  Crit  Ltd   Ctrl  
  -------------------------------------------------------------------------------------
  1                       1.00   0.00  0.00  0.00  0.00  1.00  0.00  0.00  0.20  0.00
  WS02001211WS02001212    1.00   0.00  0.00  0.00  1.00  0.00  0.00  0.00  0.00  0.00
  WS02001212WS02001213    1.00   0.00  0.00  0.00  0.34  0.00  0.66  0.00  0.00  0.00
  WS02001213WS02003059    1.00   0.00  0.00  0.00  0.99  0.00  0.00  0.00  0.00  0.00
  WS02003059WS02003060    1.00   0.00  0.00  0.00  1.00  0.00  0.00  0.00  0.00  0.00
  WS02003060WS02003069    1.00   0.00  0.00  0.00  0.99  0.01  0.00  0.00  0.00  0.00
  WS02003066WSF200        1.00   0.02  0.10  0.00  0.00  0.88  0.00  0.00  0.86  0.00
  WS02003067WS02003066    1.00   0.10  0.02  0.00  0.89  0.00  0.00  0.00  0.00  0.00
  WS02003069WS02003072    1.00   0.00  0.00  0.00  0.99  0.01  0.00  0.00  0.00  0.00
  WS02003072WS02003073    1.00   0.00  0.00  0.00  0.00  0.00  0.00  1.00  0.00  0.00
  WS02004138WS02004139    1.00   0.00  0.00  0.00  0.99  0.01  0.00  0.00  1.00  0.00
  WS02004139WS02001211    1.00   0.00  0.00  0.00  1.00  0.00  0.00  0.00  0.00  0.00
  WS02004401WS02004402    1.00   0.02  0.00  0.00  0.98  0.00  0.00  0.00  0.00  0.00
  WS02004402WS02004403    1.00   0.02  0.00  0.00  0.98  0.00  0.00  0.00  0.00  0.00
  WS02004403WS02004404    1.00   0.00  0.03  0.00  0.97  0.00  0.00  0.00  0.00  0.00
  WS02004404WS02004405    1.00   0.00  0.00  0.00  1.00  0.00  0.00  0.00  0.00  0.00
  WS02004405WS02004406    1.00   0.00  0.00  0.00  1.00  0.00  0.00  0.00  0.00  0.00
  WS02004406WS02004407    1.00   0.00  0.05  0.00  0.95  0.00  0.00  0.00  0.00  0.00
  WS02004407WS02004409    1.00   0.05  0.00  0.00  0.94  0.01  0.00  0.00  0.94  0.00
  WS02004409WS02004410    1.00   0.05  0.00  0.00  0.95  0.00  0.00  0.00  0.03  0.00
  WS02004410WS02004411    1.00   0.05  0.00  0.00  0.95  0.00  0.00  0.00  0.00  0.00
  WS02004411WS02004412    1.00   0.05  0.00  0.00  0.95  0.00  0.00  0.00  0.00  0.00
  WS02004412WS02004413    1.00   0.05  0.00  0.00  0.94  0.00  0.00  0.00  0.01  0.00
  WS02004413WS02003067    1.00   0.06  0.04  0.00  0.00  0.00  0.90  0.00  0.00  0.00
  WS02006109WS02006110    1.00   0.00  0.01  0.00  0.98  0.00  0.01  0.00  0.00  0.00
  WS02006110WS02006113    1.00   0.01  0.01  0.00  0.98  0.00  0.00  0.00  0.00  0.00
  WS02006111WS02006112    1.00   0.02  0.00  0.00  0.98  0.00  0.00  0.00  0.98  0.00
  WS02006112WS02006115    1.00   0.02  0.00  0.00  0.97  0.00  0.00  0.00  0.00  0.00
  WS02006113WS02006111    1.00   0.02  0.00  0.00  0.00  0.98  0.00  0.00  0.11  0.00
  WS02006115WS02006116    1.00   0.02  0.00  0.00  0.97  0.00  0.00  0.01  0.00  0.00
  WS02006116WS02004401    1.00   0.02  0.00  0.00  0.98  0.00  0.00  0.00  0.00  0.00
  WS02006228WS02006109    1.00   0.00  0.00  0.00  1.00  0.00  0.00  0.00  0.00  0.00
  WS02006229WS02006228    1.00   0.00  0.00  0.00  0.99  0.00  0.00  0.01  0.00  0.00
  WS02006230WS02006229    1.00   0.00  0.00  0.00  0.99  0.00  0.00  0.01  0.00  0.00
  WS02006231WS02006230    1.00   0.00  0.00  0.00  0.18  0.00  0.82  0.00  0.00  0.00
  WS02006232WS02006231    1.00   0.00  0.00  0.00  0.99  0.00  0.01  0.00  0.00  0.00
  WS02006234WS02006232    1.00   0.00  0.00  0.00  1.00  0.00  0.00  0.00  0.52  0.00
  WS02006235WS02006234    1.00   0.00  0.00  0.00  0.44  0.00  0.56  0.00  0.00  0.00
  WS02006238WS02006235    1.00   0.00  0.00  0.00  1.00  0.00  0.00  0.00  0.00  0.00
  WS02006239WS02006238    1.00   0.00  0.00  0.00  1.00  0.00  0.00  0.00  0.61  0.00
  WS02006240WS02006239    1.00   0.00  0.00  0.00  0.35  0.00  0.00  0.65  0.02  0.00
  WS02006242WS02006240    1.00   0.00  0.00  0.00  0.99  0.00  0.01  0.00  0.00  0.00
  WS02006243WS02006242    1.00   0.00  0.00  0.00  0.99  0.00  0.00  0.01  0.70  0.00
  WS02006245WS02006243    1.00   0.00  0.00  0.00  0.40  0.00  0.00  0.60  0.00  0.00
  WS02006247WS02006245    1.00   0.00  0.00  0.00  0.98  0.00  0.00  0.01  0.00  0.00
  WS02006248WS02006247    1.00   0.00  0.00  0.00  0.99  0.00  0.00  0.01  0.14  0.00
  WS02006249WS02006248    1.00   0.00  0.00  0.00  0.29  0.00  0.71  0.00  0.00  0.00
  WS02006251WS02006249    1.00   0.00  0.00  0.00  1.00  0.00  0.00  0.00  0.71  0.00
  WS02006252WS02006251    1.00   0.02  0.74  0.00  0.00  0.00  0.24  0.00  0.00  0.00
  WS02006256WS02006235    1.00   0.00  0.00  0.00  1.00  0.00  0.00  0.00  0.00  0.00
  WSF200WS02003060        1.00   0.00  0.02  0.00  0.98  0.00  0.00  0.00  0.72  0.00
  YS02001580YS02001583    1.00   0.26  0.58  0.00  0.16  0.00  0.00  0.00  0.67  0.00
  YS02001583YS02001586    1.00   0.50  0.29  0.00  0.21  0.00  0.00  0.00  0.67  0.00
  YS02001586YS02001590    1.00   0.13  0.00  0.00  0.37  0.04  0.00  0.46  0.34  0.00
  YS02001590YS02001593    1.00   0.13  0.01  0.00  0.08  0.00  0.78  0.00  0.00  0.00
  YS02001593YS02001596    1.00   0.14  0.00  0.00  0.61  0.04  0.00  0.21  0.56  0.00
  YS02001596YS02001600    1.00   0.14  0.00  0.00  0.77  0.01  0.00  0.08  0.02  0.00
  YS02001600YS02001601    1.00   0.13  0.01  0.00  0.86  0.00  0.00  0.00  0.06  0.00
  YS02001601YS02001602    1.00   0.13  0.01  0.00  0.86  0.00  0.00  0.00  0.00  0.00
  YS02001602YS02001605    1.00   0.14  0.00  0.00  0.86  0.00  0.00  0.00  0.00  0.00
  YS02001605YS02001607    1.00   0.14  0.00  0.00  0.86  0.00  0.00  0.00  0.00  0.00
  YS02001607YS02001610    1.00   0.13  0.01  0.00  0.86  0.00  0.00  0.00  0.02  0.00
  YS02001610YS02001613    1.00   0.13  0.00  0.00  0.87  0.00  0.00  0.00  0.01  0.00
  YS02001613YS02001616    1.00   0.13  0.00  0.00  0.87  0.00  0.00  0.00  0.01  0.00
  YS02001616YS02001619    1.00   0.13  0.00  0.00  0.87  0.00  0.00  0.00  0.00  0.00
  YS02001619YS02001622    1.00   0.13  0.00  0.00  0.87  0.00  0.00  0.00  0.00  0.00
  YS02001622YS02001625    1.00   0.13  0.00  0.00  0.87  0.00  0.00  0.00  0.06  0.00
  YS02001625YS02001629    1.00   0.13  0.06  0.00  0.75  0.00  0.06  0.00  0.00  0.00
  YS02001629YS02163301    1.00   0.16  0.01  0.00  0.82  0.00  0.00  0.00  0.00  0.00
  YS02001633YS02163601    1.00   0.00  0.01  0.00  0.99  0.00  0.00  0.00  0.15  0.00
  YS02001641YS02001644    1.00   0.00  0.01  0.00  0.99  0.00  0.00  0.00  0.00  0.00
  YS02001644YS02001647    1.00   0.00  0.19  0.00  0.81  0.00  0.00  0.00  0.00  0.00
  YS02001647YS02001649    1.00   0.00  0.19  0.00  0.78  0.04  0.00  0.00  0.02  0.00
  YS02001649YS02001757    1.00   0.00  0.00  0.00  0.96  0.04  0.00  0.00  0.20  0.00
  YS02001652YS02001649    1.00   0.00  0.00  0.00  0.96  0.04  0.00  0.00  0.20  0.00
  YS02001655YS02001652    1.00   0.00  0.00  0.00  0.75  0.01  0.00  0.24  0.01  0.00
  YS02001658YS02001655    1.00   0.00  0.15  0.00  0.73  0.12  0.00  0.00  0.07  0.00
  YS02001661YS02001658    1.00   0.15  0.00  0.00  0.73  0.13  0.00  0.00  0.05  0.00
  YS02001664YS02001661    1.00   0.13  0.00  0.00  0.82  0.05  0.00  0.00  0.86  0.00
  YS02001745YS02001748    1.00   0.00  0.00  0.00  0.72  0.00  0.00  0.27  0.01  0.00
  YS02001748YS02001751    1.00   0.00  0.00  0.00  0.89  0.11  0.00  0.00  0.13  0.00
  YS02001751YS02001754    1.00   0.00  0.00  0.00  0.74  0.00  0.00  0.26  0.01  0.00
  YS02001754YS02001757    1.00   0.00  0.00  0.00  1.00  0.00  0.00  0.00  0.25  0.00
  YS02001757CaochengTiaoxuchi    1.00   0.00  0.00  0.00  0.99  0.01  0.00  0.00  0.24  0.00
  YS02001759YS02001757    1.00   0.00  0.00  0.00  1.00  0.00  0.00  0.00  0.08  0.00
  YS02001762YS02001759    1.00   0.00  0.00  0.00  1.00  0.00  0.00  0.00  0.05  0.00
  YS02001765YS02001762    1.00   0.00  0.00  0.00  1.00  0.00  0.00  0.00  0.18  0.00
  YS02001767YS02001765    1.00   0.00  0.00  0.00  1.00  0.00  0.00  0.00  0.00  0.00
  YS02001770YS02001767    1.00   0.00  0.00  0.00  1.00  0.00  0.00  0.00  0.00  0.00
  YS02001774YS02001770    1.00   0.00  0.14  0.00  0.86  0.00  0.00  0.00  0.04  0.00
  YS02001779YS02001774    1.00   0.00  0.00  0.00  1.00  0.00  0.00  0.00  0.20  0.00
  YS02001783YS02001784    1.00   0.00  0.20  0.00  0.80  0.00  0.00  0.00  0.00  0.00
  YS02001784YS02001785    1.00   0.00  0.00  0.00  1.00  0.00  0.00  0.00  0.18  0.00
  YS02001786YS02001788    1.00   0.00  0.00  0.00  0.95  0.05  0.00  0.00  0.00  0.00
  YS02001788YS02001790    1.00   0.00  0.00  0.00  0.94  0.06  0.00  0.00  0.20  0.00
  YS02001790YS02001791    1.00   0.00  0.00  0.00  0.75  0.25  0.00  0.00  0.04  0.00
  YS02001791YS02001793    1.00   0.00  0.00  0.00  0.74  0.26  0.00  0.00  0.00  0.00
  YS02001793JiankangQianchi    1.00   0.00  0.00  0.00  0.94  0.06  0.00  0.00  0.23  0.00
  YS02001882YS02001884    1.00   0.16  0.01  0.00  0.83  0.00  0.00  0.00  0.00  0.00
  YS02001884YS02001887    1.00   0.06  0.05  0.00  0.89  0.00  0.00  0.00  0.00  0.00
  YS02001887YS02001890    1.00   0.00  0.00  0.00  0.97  0.00  0.03  0.00  0.00  0.00
  YS02001890YS02001895    1.00   0.00  0.17  0.00  0.82  0.00  0.00  0.00  0.00  0.00
  YS02001895YS02001898    1.00   0.18  0.00  0.00  0.80  0.00  0.02  0.00  0.00  0.00
  YS02001898YS02001901    1.00   0.18  0.00  0.00  0.82  0.00  0.00  0.00  0.01  0.00
  YS02001901YS02001904    1.00   0.18  0.00  0.00  0.82  0.00  0.00  0.00  0.00  0.00
  YS02001904YS02001907    1.00   0.00  0.17  0.00  0.82  0.00  0.00  0.00  0.00  0.00
  YS02001907YS02006553    1.00   0.00  0.02  0.00  0.98  0.00  0.00  0.00  0.00  0.00
  YS02001910YS02001907    1.00   0.00  0.00  0.00  0.97  0.00  0.00  0.03  0.12  0.00
  YS02001915YS02001910    1.00   0.00  0.00  0.00  0.96  0.04  0.00  0.00  0.17  0.00
  YS02001918YS02001915    1.00   0.00  0.01  0.00  0.98  0.02  0.00  0.00  0.78  0.00
  YS02001920YS02001918    1.00   0.00  0.01  0.00  0.99  0.00  0.00  0.00  0.00  0.00
  YS02001923YS02001920    1.00   0.00  0.00  0.00  1.00  0.00  0.00  0.00  0.95  0.00
  YS02001926YS02001923    1.00   0.00  0.07  0.00  0.04  0.00  0.89  0.00  0.00  0.00
  YS02001929YS02001926    1.00   0.00  0.13  0.00  0.87  0.00  0.00  0.00  0.84  0.00
  YS02006553YS02006556    1.00   0.01  0.00  0.00  0.99  0.00  0.00  0.00  0.03  0.00
  YS02006556YS02006558    1.00   0.00  0.00  0.00  1.00  0.00  0.00  0.00  0.00  0.00
  YS02006558YS02006561    1.00   0.19  0.00  0.00  0.05  0.75  0.00  0.00  0.17  0.00
  YS02006561YS02001783    1.00   0.19  0.00  0.00  0.74  0.07  0.00  0.00  0.72  0.00
  YS02163301YS02001633    1.00   0.00  0.16  0.00  0.84  0.00  0.00  0.00  0.00  0.00
  YS02163601YS02164001    1.00   0.00  0.08  0.00  0.92  0.00  0.00  0.00  0.00  0.00
  YS02164001YS02001641    1.00   0.01  0.07  0.00  0.92  0.00  0.00  0.00  0.06  0.00
  
  
  *************************
  Conduit Surcharge Summary
  *************************
  
  ----------------------------------------------------------------------------
                                                           Hours        Hours 
                         --------- Hours Full --------   Above Full   Capacity
  Conduit                Both Ends  Upstream  Dnstream   Normal Flow   Limited
  ----------------------------------------------------------------------------
  WS02003072WS02003073        0.01      0.01      0.01      2.14         0.01
  WS02004404WS02004405        0.01      0.01      0.01      1.99         0.01
  WS02006109WS02006110        0.01      0.01      1.34      0.01         0.01
  WS02006110WS02006113        0.01      0.01      1.32      0.01         0.01
  WS02006111WS02006112        0.01      0.01      1.42      0.01         0.01
  WS02006228WS02006109        1.28      1.34      1.28      1.66         1.28
  WS02006229WS02006228        1.27      1.29      1.27      1.52         1.27
  WS02006230WS02006229        1.42      1.47      1.42      2.43         1.42
  WS02006231WS02006230        0.01      0.01      0.01      2.20         0.01
  WS02006232WS02006231        0.01      0.01      1.35      0.01         0.01
  WS02006234WS02006232        1.25      1.25      1.35      0.01         0.01
  WS02006235WS02006234        0.01      0.01      1.29      2.07         0.01
  WS02006238WS02006235        1.30      1.30      1.36      0.01         0.01
  WS02006239WS02006238        1.32      1.34      1.32      1.59         1.32
  WS02006240WS02006239        1.30      1.31      1.30      1.61         1.30
  WS02006242WS02006240        1.30      1.30      1.44      1.73         0.01
  WS02006243WS02006242        1.32      1.32      1.39      0.01         0.01
  WS02006245WS02006243        1.32      1.32      1.32      1.71         1.31
  WS02006247WS02006245        1.32      1.34      1.32      1.90         1.32
  WS02006248WS02006247        1.32      1.32      1.33      0.01         0.01
  WS02006249WS02006248        1.31      1.31      1.33      1.87         0.01
  WS02006251WS02006249        1.32      1.33      1.33      1.80         1.32
  WS02006252WS02006251        1.84      1.84      1.84      1.84         0.01
  WS02006256WS02006235        2.12      2.12      3.06      0.02         0.01
  YS02001580YS02001583        0.34      0.34      0.38      0.01         0.01
  YS02001583YS02001586        0.35      0.35      0.48      0.01         0.01
  YS02001586YS02001590        0.49      0.49      0.55      0.01         0.01
  YS02001590YS02001593        0.55      0.55      0.57      0.56         0.01
  YS02001593YS02001596        0.56      0.56      0.67      0.01         0.01
  YS02001596YS02001600        0.72      0.72      0.91      0.01         0.01
  YS02001600YS02001601        1.04      1.04      6.10      0.01         0.01
  YS02001601YS02001602        6.05      6.05      6.11      0.74         0.01
  YS02001602YS02001605        6.03      6.03      6.05      1.87         0.02
  YS02001605YS02001607        6.00      6.03      6.00      0.98         0.87
  YS02001607YS02001610        0.61      0.61      0.65      0.01         0.01
  YS02001610YS02001613        0.61      0.61      0.65      0.01         0.01
  YS02001613YS02001616        0.55      0.55      0.61      0.01         0.01
  YS02001616YS02001619        0.53      0.53      0.55      0.01         0.01
  YS02001619YS02001622        0.53      0.53      0.55      0.48         0.41
  YS02001622YS02001625        0.55      0.55      5.17      0.01         0.01
  YS02001625YS02001629        0.49      0.49      5.17      0.01         0.01
  YS02001629YS02163301        5.90      5.90      5.90      0.05         0.08
  YS02001633YS02163601        5.90      5.90      5.91      0.26         0.25
  YS02001641YS02001644        5.87      5.88      5.87      1.07         0.86
  YS02001644YS02001647        4.81      4.81      5.87      0.04         0.01
  YS02001647YS02001649        4.81      4.81      5.83      0.01         0.01
  YS02001649YS02001757        5.82      5.83      5.82      0.16         0.13
  YS02001652YS02001649        5.22      5.22      5.83      0.01         0.01
  YS02001655YS02001652        0.21      0.21      3.33      0.01         0.01
  YS02001658YS02001655        0.05      0.05      0.21      0.01         0.01
  YS02001661YS02001658        0.01      0.01      0.05      0.01         0.01
  YS02001664YS02001661        0.01      0.01      0.01      0.01         0.01
  YS02001745YS02001748        0.01      0.01      0.01      0.01         0.01
  YS02001748YS02001751        0.02      0.02      0.09      0.01         0.01
  YS02001751YS02001754        0.09      0.09      0.33      0.01         0.01
  YS02001754YS02001757        4.88      4.88      5.82      0.01         0.01
  YS02001757CaochengTiaoxuchi        5.80      5.82      5.80      0.21         0.16
  YS02001759YS02001757        5.81      5.81      5.82      0.01         0.01
  YS02001762YS02001759        5.81      5.81      5.81      0.01         0.01
  YS02001765YS02001762        5.81      5.81      5.81      0.01         0.01
  YS02001767YS02001765        5.81      5.81      5.81      0.01         0.02
  YS02001770YS02001767        5.81      5.81      5.81      0.32         0.42
  YS02001774YS02001770        5.81      5.81      5.81      0.01         0.01
  YS02001779YS02001774        0.29      0.29      5.81      0.01         0.01
  YS02001783YS02001784        0.49      0.49      0.49      0.41         0.41
  YS02001784YS02001785        0.49      0.49      0.49      0.62         0.49
  YS02001786YS02001788        0.49      0.49      0.49      0.55         0.49
  YS02001788YS02001790        0.49      0.49      5.90      0.01         0.01
  YS02001790YS02001791        5.90      5.90      5.90      0.23         0.23
  YS02001791YS02001793        5.90      5.90      5.93      0.01         0.01
  YS02001793JiankangQianchi        5.92      5.92      6.16      0.01         0.01
  YS02001882YS02001884        0.32      0.32      0.33      0.01         0.01
  YS02001884YS02001887        0.35      0.35      0.36      0.01         0.01
  YS02001887YS02001890        0.37      0.37      0.38      0.01         0.01
  YS02001890YS02001895        0.31      0.31      0.39      0.01         0.01
  YS02001895YS02001898        0.31      0.31      0.31      0.01         0.01
  YS02001898YS02001901        0.32      0.32      0.35      0.01         0.01
  YS02001901YS02001904        0.34      0.34      0.35      0.01         0.01
  YS02001904YS02001907        0.34      0.34      0.54      0.01         0.01
  YS02001907YS02006553        0.64      0.64      0.68      0.01         0.01
  YS02001910YS02001907        0.39      0.39      0.53      0.01         0.01
  YS02001915YS02001910        0.32      0.32      0.39      0.01         0.01
  YS02001918YS02001915        0.24      0.24      0.32      0.01         0.01
  YS02001920YS02001918        0.24      0.24      0.26      0.01         0.01
  YS02001923YS02001920        0.20      0.20      0.26      0.01         0.01
  YS02001926YS02001923        0.01      0.01      0.01      0.01         0.01
  YS02001929YS02001926        0.01      0.01      0.01      0.01         0.01
  YS02006553YS02006556        0.46      0.46      0.54      0.01         0.01
  YS02006556YS02006558        0.49      0.49      0.55      0.01         0.01
  YS02006558YS02006561        0.35      0.45      0.35      0.60         0.35
  YS02006561YS02001783        0.28      0.28      0.49      0.01         0.01
  YS02163301YS02001633        5.90      5.90      5.91      0.01         0.01
  YS02163601YS02164001        5.89      5.89      5.91      0.07         0.01
  YS02164001YS02001641        5.88      5.89      5.88      0.49         0.46
  
  
  ***************
  Pumping Summary
  ***************
  
  ---------------------------------------------------------------------------------------------------------
                                                  Min       Avg       Max     Total     Power    % Time Off
                        Percent   Number of      Flow      Flow      Flow    Volume     Usage    Pump Curve
  Pump                 Utilized   Start-Ups       LPS       LPS       LPS  10^6 ltr     Kw-hr    Low   High
  ---------------------------------------------------------------------------------------------------------
  CC-R1                    1.06           1      0.00    683.00    683.00     0.208      3.51    0.0  100.0
  CC-R2                    1.06           1      0.00    683.00    683.00     0.208      3.51    0.0  100.0
  CC-S1                   22.99           4      0.00    200.00    200.00     1.324      6.59    0.0   40.6
  CC-S2                   24.03           5      0.00    200.00    200.00     1.384      6.75    0.0   43.2
  JK-R1                    0.97           2      0.00    347.46   1000.00     0.078      0.47    0.0    0.0
  JK-R2                    0.97           2      0.00    347.46   1000.00     0.078      0.47    0.0    0.0
  JK-S                     0.97           2      0.00    104.30    300.00     0.023      0.44    0.0    0.0
  XR-1                   100.00           1      0.00     95.00     95.00     2.736     68.18    0.0    0.0
  XR-2                   100.00           1      0.00     95.00     95.00     2.736     68.18    0.0    0.0
  XR-3                   100.00           1      0.00     95.00     95.00     2.736     68.18    0.0    0.0
  XR-4                   100.00           1      0.00     95.00     95.00     2.736     68.18    0.0    0.0
  

  Analysis begun on:  Wed Nov  5 16:30:14 2025
  Analysis ended on:  Wed Nov  5 16:30:17 2025
  Total elapsed time: 00:00:03