
  EPA STORM WATER MANAGEMENT MODEL - VERSION 5.2 (Build 5.2.4)
  PYSWMM TOOLKIT API - VERSION v1.0 (2023-11-27)
  ------------------------------------------------------------

  WARNING 04: minimum elevation drop used for Conduit WS02004404WS02004405
  WARNING 03: negative offset ignored for Link YS02001904YS02001907
  
  ****************
  Analysis Options
  ****************
  Flow Units ............... LPS
  Process Models:
    Rainfall/Runoff ........ YES
    RDII ................... NO
    Snowmelt ............... NO
    Groundwater ............ NO
    Flow Routing ........... YES
    Ponding Allowed ........ NO
    Water Quality .......... NO
  Infiltration Method ...... HORTON
  Flow Routing Method ...... DYNWAVE
  Surcharge Method ......... EXTRAN
  Starting Date ............ 08/28/2015 08:00:00
  Ending Date .............. 08/28/2015 16:00:00
  Antecedent Dry Days ...... 8.0
  Report Time Step ......... 00:01:00
  Wet Time Step ............ 00:01:00
  Dry Time Step ............ 00:01:00
  Routing Time Step ........ 30.00 sec
  Variable Time Step ....... YES
  Maximum Trials ........... 8
  Number of Threads ........ 4
  Head Tolerance ........... 0.001500 m
  
  
  **************************        Volume         Depth
  Runoff Quantity Continuity     hectare-m            mm
  **************************     ---------       -------
  Initial LID Storage ......         0.049         1.488
  Total Precipitation ......         1.917        57.802
  Evaporation Loss .........         0.000         0.000
  Infiltration Loss ........         0.075         2.251
  Surface Runoff ...........         1.413        42.605
  Final Storage ............         0.480        14.466
  Continuity Error (%) .....        -0.055
  
  
  **************************        Volume        Volume
  Flow Routing Continuity        hectare-m      10^6 ltr
  **************************     ---------     ---------
  Dry Weather Inflow .......         0.602         6.020
  Wet Weather Inflow .......         1.414        14.136
  Groundwater Inflow .......         0.000         0.000
  RDII Inflow ..............         0.000         0.000
  External Inflow ..........         0.105         1.045
  External Outflow .........         1.507        15.072
  Flooding Loss ............         0.546         5.465
  Evaporation Loss .........         0.000         0.000
  Exfiltration Loss ........         0.000         0.000
  Initial Stored Volume ....         0.303         3.031
  Final Stored Volume ......         0.827         8.274
  Continuity Error (%) .....       -18.893
  
  
  *************************
  Highest Continuity Errors
  *************************
  Node YS02001774 (37.63%)
  Node YS02001583 (-16.34%)
  Node WS02006256 (-6.15%)
  Node YS02001884 (5.15%)
  Node YS02001754 (3.92%)
  
  
  ***************************
  Time-Step Critical Elements
  ***************************
  Link WS02001212WS02001213 (36.13%)
  Link WS02006235WS02006234 (23.95%)
  Link WS02006238WS02006235 (14.03%)
  Link YS02006556YS02006558 (6.52%)
  Link WS02003066WSF200 (5.70%)
  
  
  ********************************
  Highest Flow Instability Indexes
  ********************************
  Link WS02006113WS02006111 (40)
  Link WS02006111WS02006112 (32)
  Link WS02006252WS02006251 (30)
  Link WS02006110WS02006113 (25)
  Link WS02006256WS02006235 (25)
  
  
  *********************************
  Most Frequent Nonconverging Nodes
  *********************************
  Node CC-1 (18.49%)
  Node CC-2 (18.49%)
  Node JK-1 (18.49%)
  Node JK-2 (18.49%)
  Node WSC (18.49%)
  
  
  *************************
  Routing Time Step Summary
  *************************
  Minimum Time Step           :     0.04 sec
  Average Time Step           :     3.93 sec
  Maximum Time Step           :     6.46 sec
  % of Time in Steady State   :     0.00
  Average Iterations per Step :     3.67
  % of Steps Not Converging   :    18.49
  Time Step Frequencies       :
     30.000 - 13.228 sec      :     0.00 %
     13.228 -  5.833 sec      :    34.79 %
      5.833 -  2.572 sec      :    41.80 %
      2.572 -  1.134 sec      :    17.88 %
      1.134 -  0.500 sec      :     5.52 %
  
  
  ***************************
  Subcatchment Runoff Summary
  ***************************
  
  ------------------------------------------------------------------------------------------------------------------------------
                            Total      Total      Total      Total     Imperv       Perv      Total       Total     Peak  Runoff
                           Precip      Runon       Evap      Infil     Runoff     Runoff     Runoff      Runoff   Runoff   Coeff
  Subcatchment                 mm         mm         mm         mm         mm         mm         mm    10^6 ltr      LPS
  ------------------------------------------------------------------------------------------------------------------------------
  sub60                     57.80       0.00       0.00       1.37      38.34       3.99      42.32        0.56   377.75   0.732
  sub61                     57.80       0.00       0.00       2.09      38.30       5.95      44.25        0.81   545.02   0.765
  sub62                     57.80       0.00       0.00       0.93      40.83       2.71      43.54        1.19   745.67   0.753
  sub63                     57.80       0.00       0.00       3.79      32.80       9.93      42.74        0.97   594.14   0.739
  sub64                     57.80       0.00       0.00       1.83      37.35       4.93      42.28        1.02   591.38   0.731
  sub65                     57.80       0.00       0.00       1.67      40.31       4.50      44.81        1.23   685.43   0.775
  sub66                     57.80       0.00       0.00       4.36      31.72       8.93      40.65        1.90   847.40   0.703
  sub67                     57.80       0.00       0.00       0.93      41.86       2.80      44.67        0.83   601.71   0.773
  sub68                     57.80       0.00       0.00       1.60      36.97       4.56      41.53        1.14   743.46   0.719
  sub69                     57.80       0.00       0.00       1.44      38.86       5.43      44.29        1.64   898.95   0.766
  sub70                     57.80       0.00       0.00       4.75      31.13      11.34      42.47        1.23   491.84   0.735
  sub71                     57.80       0.00       0.00       0.86      37.09       2.45      39.54        1.03   604.79   0.684
  sub72                     57.80       0.00       0.00       0.81      40.06       2.28      42.34        0.58   304.04   0.733
  

  ***********************
  LID Performance Summary
  ***********************

  --------------------------------------------------------------------------------------------------------------------
                                         Total      Evap     Infil   Surface    Drain    Initial     Final  Continuity
                                        Inflow      Loss      Loss   Outflow   Outflow   Storage   Storage       Error
  Subcatchment      LID Control             mm        mm        mm        mm        mm        mm        mm           %
  --------------------------------------------------------------------------------------------------------------------
  sub60             GreenRoof            57.80      0.00      0.00      0.00      0.00      7.05     64.94       -0.14
  sub61             GreenRoof            57.80      0.00      0.00      0.00      0.00      7.05     64.94       -0.14
  sub62             GreenRoof            57.80      0.00      0.00      0.00      0.00      7.05     64.94       -0.14
  sub63             GreenRoof            57.80      0.00      0.00      0.00      0.00      7.05     64.94       -0.14
  sub64             GreenRoof            57.80      0.00      0.00      0.00      0.00      7.05     64.94       -0.14
  sub65             GreenRoof            57.80      0.00      0.00      0.00      0.00      7.05     64.94       -0.14
  sub66             GreenRoof            57.80      0.00      0.00      0.00      0.00      7.05     64.94       -0.14
  sub67             GreenRoof            57.80      0.00      0.00      0.00      0.00      7.05     64.94       -0.14
  sub68             GreenRoof            57.80      0.00      0.00      0.00      0.00      7.05     64.94       -0.14
  sub69             GreenRoof            57.80      0.00      0.00      0.00      0.00      7.05     64.94       -0.14
  sub70             GreenRoof            57.80      0.00      0.00      0.00      0.00      7.05     64.94       -0.14
  sub71             GreenRoof            57.80      0.00      0.00      0.00      0.00      7.05     64.94       -0.14
  sub72             GreenRoof            57.80      0.00      0.00      0.00      0.00      7.05     64.94       -0.14
  
  ******************
  Node Depth Summary
  ******************
  
  ---------------------------------------------------------------------------------
                                 Average  Maximum  Maximum  Time of Max    Reported
                                   Depth    Depth      HGL   Occurrence   Max Depth
  Node                 Type       Meters   Meters   Meters  days hr:min      Meters
  ---------------------------------------------------------------------------------
  WS02001211           JUNCTION     0.76     0.78     5.62     0  03:27        0.78
  WS02001212           JUNCTION     0.46     0.49     5.55     0  03:11        0.49
  WS02001213           JUNCTION     0.68     0.73     5.49     0  03:10        0.73
  WS02003059           JUNCTION     0.73     0.78     5.47     0  03:09        0.78
  WS02003060           JUNCTION     0.38     0.47     5.41     0  03:09        0.47
  WS02003066           JUNCTION     0.16     0.27     5.82     0  03:08        0.27
  WS02003067           JUNCTION     0.43     0.65     5.97     0  03:08        0.65
  WS02003069           JUNCTION     0.42     0.54     5.12     0  03:10        0.54
  WS02003072           JUNCTION     0.49     0.60     4.97     0  03:10        0.60
  WS02003073           JUNCTION     0.29     0.37     4.43     0  03:26        0.37
  WS02004138           JUNCTION     0.19     0.20     7.45     0  00:00        0.19
  WS02004139           JUNCTION     0.71     0.73     5.64     0  03:12        0.73
  WS02004401           JUNCTION     0.51     0.75     6.75     0  02:43        0.75
  WS02004402           JUNCTION     0.54     0.78     6.74     0  02:43        0.78
  WS02004403           JUNCTION     0.57     0.80     6.73     0  02:44        0.80
  WS02004404           JUNCTION     0.64     0.88     6.73     0  02:44        0.88
  WS02004405           JUNCTION     0.64     0.88     6.73     0  02:44        0.87
  WS02004406           JUNCTION     0.65     0.88     6.71     0  02:44        0.88
  WS02004407           JUNCTION     0.13     0.26     6.57     0  02:44        0.26
  WS02004409           JUNCTION     0.30     0.57     6.34     0  03:06        0.57
  WS02004410           JUNCTION     0.33     0.59     6.31     0  03:07        0.59
  WS02004411           JUNCTION     0.35     0.61     6.29     0  03:07        0.61
  WS02004412           JUNCTION     0.38     0.62     6.26     0  03:24        0.62
  WS02004413           JUNCTION     0.53     0.79     6.26     0  03:08        0.79
  WS02006109           JUNCTION     0.56     0.84     7.45     0  02:02        0.83
  WS02006110           JUNCTION     0.57     0.82     7.41     0  02:05        0.82
  WS02006111           JUNCTION     0.14     0.25     6.96     0  02:45        0.25
  WS02006112           JUNCTION     0.66     0.93     6.82     0  02:45        0.93
  WS02006113           JUNCTION     0.21     0.39     7.29     0  02:05        0.39
  WS02006115           JUNCTION     0.39     0.65     6.78     0  02:41        0.65
  WS02006116           JUNCTION     0.48     0.73     6.77     0  02:46        0.73
  WS02006228           JUNCTION     0.55     0.85     7.50     0  02:02        0.85
  WS02006229           JUNCTION     0.52     0.83     7.52     0  02:02        0.82
  WS02006230           JUNCTION     0.51     0.86     7.60     0  02:05        0.86
  WS02006231           JUNCTION     0.30     0.60     7.72     0  02:03        0.60
  WS02006232           JUNCTION     0.42     0.75     7.79     0  02:03        0.75
  WS02006234           JUNCTION     0.34     0.71     7.87     0  01:48        0.71
  WS02006235           JUNCTION     0.37     0.77     7.93     0  02:02        0.76
  WS02006238           JUNCTION     0.40     0.80     7.95     0  02:00        0.80
  WS02006239           JUNCTION     0.37     0.81     8.02     0  02:14        0.80
  WS02006240           JUNCTION     0.36     0.79     8.08     0  02:14        0.79
  WS02006242           JUNCTION     0.43     0.90     8.17     0  01:51        0.90
  WS02006243           JUNCTION     0.37     0.84     8.26     0  01:58        0.84
  WS02006245           JUNCTION     0.38     0.86     8.34     0  02:08        0.85
  WS02006247           JUNCTION     0.39     0.89     8.39     0  02:27        0.89
  WS02006248           JUNCTION     0.37     0.86     8.44     0  02:39        0.86
  WS02006249           JUNCTION     0.39     0.90     8.50     0  02:13        0.90
  WS02006251           JUNCTION     0.39     0.91     8.58     0  02:07        0.91
  WS02006252           JUNCTION     0.26     1.50     9.74     0  00:00        0.59
  WS02006256           JUNCTION     0.61     2.35     9.28     0  00:00        2.35
  WSF200               JUNCTION     0.13     0.25     5.48     0  03:08        0.25
  YS02001580           JUNCTION     0.11     1.05     9.59     0  01:36        0.77
  YS02001583           JUNCTION     0.14     1.14     9.64     0  01:36        0.82
  YS02001586           JUNCTION     0.23     1.13     9.30     0  01:35        1.13
  YS02001590           JUNCTION     0.34     1.40     9.26     0  01:35        1.40
  YS02001593           JUNCTION     0.28     1.45     9.31     0  01:35        1.30
  YS02001596           JUNCTION     0.58     1.76     9.18     0  01:35        1.67
  YS02001600           JUNCTION     0.82     1.87     9.00     0  01:35        1.87
  YS02001601           JUNCTION     1.06     2.06     8.90     0  01:35        2.06
  YS02001602           JUNCTION     0.97     1.87     8.77     0  01:36        1.87
  YS02001605           JUNCTION     0.94     1.78     8.68     0  01:36        1.78
  YS02001607           JUNCTION     0.92     1.68     8.53     0  01:36        1.65
  YS02001610           JUNCTION     0.97     1.68     8.48     0  01:36        1.68
  YS02001613           JUNCTION     0.93     1.70     8.54     0  01:36        1.65
  YS02001616           JUNCTION     0.86     1.61     8.52     0  01:36        1.58
  YS02001619           JUNCTION     0.85     1.61     8.54     0  01:36        1.56
  YS02001622           JUNCTION     0.86     1.58     8.49     0  01:36        1.55
  YS02001625           JUNCTION     1.11     1.78     8.38     0  01:36        1.78
  YS02001629           JUNCTION     1.14     1.85     8.40     0  01:36        1.85
  YS02001633           JUNCTION     1.22     2.07     8.52     0  01:38        1.98
  YS02001641           JUNCTION     1.20     2.10     8.54     0  02:13        2.10
  YS02001644           JUNCTION     1.19     1.92     8.35     0  01:38        1.92
  YS02001647           JUNCTION     1.01     1.80     8.41     0  01:38        1.68
  YS02001649           JUNCTION     1.18     1.99     8.38     0  01:38        1.82
  YS02001652           JUNCTION     1.00     2.16     8.76     0  01:38        1.65
  YS02001655           JUNCTION     0.80     2.20     9.05     0  01:38        1.42
  YS02001658           JUNCTION     0.56     1.59     8.73     0  01:39        1.16
  YS02001661           JUNCTION     0.35     1.00     8.40     0  01:40        0.95
  YS02001664           JUNCTION     0.06     0.47     8.40     0  01:40        0.29
  YS02001745           JUNCTION     0.24     0.77     8.28     0  01:39        0.70
  YS02001748           JUNCTION     0.59     1.51     8.58     0  01:39        1.10
  YS02001751           JUNCTION     0.75     1.58     8.46     0  01:39        1.27
  YS02001754           JUNCTION     0.97     2.20     8.81     0  01:38        1.51
  YS02001757           JUNCTION     1.26     1.86     8.12     0  01:39        1.83
  YS02001759           JUNCTION     1.18     1.84     8.21     0  01:40        1.84
  YS02001762           JUNCTION     1.15     1.85     8.25     0  01:40        1.85
  YS02001765           JUNCTION     1.11     1.89     8.34     0  01:38        1.84
  YS02001767           JUNCTION     1.08     2.01     8.50     0  01:38        1.86
  YS02001770           JUNCTION     1.08     1.95     8.44     0  01:38        1.92
  YS02001774           JUNCTION     1.14     1.98     8.40     0  01:40        1.98
  YS02001779           JUNCTION     0.91     1.68     8.37     0  01:38        1.68
  YS02001783           JUNCTION     0.51     2.30     8.44     0  01:40        1.47
  YS02001784           JUNCTION     0.56     2.29     8.36     0  01:40        1.41
  YS02001786           JUNCTION     0.56     2.23     8.26     0  01:40        1.26
  YS02001788           JUNCTION     0.57     2.28     8.26     0  01:40        1.13
  YS02001790           JUNCTION     0.82     1.96     7.60     0  01:40        1.29
  YS02001791           JUNCTION     0.92     1.75     7.22     0  01:40        1.28
  YS02001793           JUNCTION     1.40     2.00     6.83     0  01:40        1.80
  YS02001882           JUNCTION     0.33     1.83     8.55     0  01:37        1.64
  YS02001884           JUNCTION     0.42     1.90     8.51     0  01:37        1.73
  YS02001887           JUNCTION     0.50     1.85     8.39     0  01:37        1.81
  YS02001890           JUNCTION     0.53     1.81     8.32     0  01:37        1.81
  YS02001895           JUNCTION     0.30     1.75     8.50     0  01:37        1.56
  YS02001898           JUNCTION     0.31     1.77     8.51     0  01:37        1.57
  YS02001901           JUNCTION     0.42     1.82     8.43     0  01:37        1.68
  YS02001904           JUNCTION     0.40     1.67     8.30     0  01:37        1.64
  YS02001907           JUNCTION     0.71     1.96     8.25     0  01:37        1.96
  YS02001910           JUNCTION     0.51     2.03     8.53     0  01:37        1.85
  YS02001915           JUNCTION     0.33     2.00     8.72     0  01:37        1.73
  YS02001918           JUNCTION     0.18     1.81     8.88     0  01:37        1.50
  YS02001920           JUNCTION     0.26     2.14     9.15     0  01:38        1.63
  YS02001923           JUNCTION     0.14     2.03     9.29     0  01:38        1.45
  YS02001926           JUNCTION     0.17     1.90     9.35     0  01:38        1.33
  YS02001929           JUNCTION     0.09     1.78     9.47     0  01:38        1.15
  YS02006553           JUNCTION     0.71     2.17     8.45     0  01:40        1.96
  YS02006556           JUNCTION     0.69     2.39     8.70     0  01:40        1.92
  YS02006558           JUNCTION     0.73     2.50     8.77     0  01:40        1.96
  YS02006561           JUNCTION     0.19     1.83     8.49     0  01:40        1.09
  YS02163301           JUNCTION     1.16     1.95     8.47     0  01:38        1.90
  YS02163601           JUNCTION     1.25     2.08     8.48     0  01:38        2.08
  YS02164001           JUNCTION     1.18     2.10     8.56     0  02:13        2.10
  CC-1                 OUTFALL      0.00     0.00     0.00     0  00:00        0.00
  CC-2                 OUTFALL      0.00     0.00     0.00     0  00:00        0.00
  JK-1                 OUTFALL      0.00     0.00     0.00     0  00:00        0.00
  JK-2                 OUTFALL      0.00     0.00     0.00     0  00:00        0.00
  WSC                  OUTFALL      0.29     0.37     1.04     0  03:27        0.37
  CC-storage           STORAGE      1.84     2.30     7.80     0  02:28        2.30
  JK-storage           STORAGE      4.68     5.80     6.60     0  01:40        5.80
  XR-storage           STORAGE      0.32     5.00     3.00     0  00:00        4.91
  
  
  *******************
  Node Inflow Summary
  *******************
  
  -------------------------------------------------------------------------------------------------
                                  Maximum  Maximum                  Lateral       Total        Flow
                                  Lateral    Total  Time of Max      Inflow      Inflow     Balance
                                   Inflow   Inflow   Occurrence      Volume      Volume       Error
  Node                 Type           LPS      LPS  days hr:min    10^6 ltr    10^6 ltr     Percent
  -------------------------------------------------------------------------------------------------
  WS02001211           JUNCTION      7.35   389.14     0  03:34       0.212        11.1       0.348
  WS02001212           JUNCTION      0.00   390.85     0  03:34           0        11.1       0.207
  WS02001213           JUNCTION      0.00   392.60     0  03:35           0        11.1       0.238
  WS02003059           JUNCTION      0.00   395.64     0  03:35           0          11       0.328
  WS02003060           JUNCTION     16.53   816.07     0  03:08       0.476        14.5       0.148
  WS02003066           JUNCTION      0.00   411.87     0  03:08           0        3.08       0.038
  WS02003067           JUNCTION      0.00   411.86     0  03:08           0        3.08       0.130
  WS02003069           JUNCTION      0.32   816.35     0  03:09     0.00922        14.5       0.157
  WS02003072           JUNCTION      0.00   816.33     0  03:10           0        14.5       0.204
  WS02003073           JUNCTION      1.82   818.15     0  03:26      0.0524        14.5       0.219
  WS02004138           JUNCTION      0.00   380.00     0  00:00           0        10.9       0.059
  WS02004139           JUNCTION      0.32   395.52     0  00:00     0.00924        10.9       0.407
  WS02004401           JUNCTION      0.00   412.25     0  02:43           0        3.18       0.312
  WS02004402           JUNCTION      0.00   412.13     0  02:46           0        3.17       0.318
  WS02004403           JUNCTION      0.00   412.06     0  02:44           0        3.16       0.312
  WS02004404           JUNCTION      0.16   412.16     0  02:44     0.00467        3.15       0.261
  WS02004405           JUNCTION      0.04   412.25     0  02:44      0.0011        3.14       0.389
  WS02004406           JUNCTION      0.00   412.37     0  02:44           0        3.13       0.652
  WS02004407           JUNCTION      0.00   412.06     0  02:44           0        3.11       0.030
  WS02004409           JUNCTION      0.00   411.98     0  02:45           0        3.11       0.072
  WS02004410           JUNCTION      0.00   411.94     0  03:06           0        3.11       0.125
  WS02004411           JUNCTION      0.00   411.91     0  03:07           0         3.1       0.164
  WS02004412           JUNCTION      0.00   411.91     0  03:07           0         3.1       0.225
  WS02004413           JUNCTION      0.00   411.94     0  03:07           0        3.09       0.405
  WS02006109           JUNCTION      1.23   412.41     0  02:02      0.0354        3.22       0.243
  WS02006110           JUNCTION      0.00   411.82     0  02:03           0        3.21       0.193
  WS02006111           JUNCTION      0.00   423.37     0  02:45           0        3.21       0.029
  WS02006112           JUNCTION      0.00   414.03     0  03:21           0         3.2       0.545
  WS02006113           JUNCTION      0.00   411.94     0  02:09           0        3.21       0.041
  WS02006115           JUNCTION      0.00   412.41     0  02:41           0        3.19       0.196
  WS02006116           JUNCTION      0.00   412.28     0  02:45           0        3.18       0.147
  WS02006228           JUNCTION      0.00   412.48     0  02:02           0        3.19       0.088
  WS02006229           JUNCTION      0.00   410.79     0  02:02           0        3.19       0.135
  WS02006230           JUNCTION     10.28   410.58     0  02:08       0.296         3.2       0.187
  WS02006231           JUNCTION      0.00   400.33     0  02:03           0         2.9      -0.107
  WS02006232           JUNCTION      0.00   400.31     0  02:03           0        2.91       0.280
  WS02006234           JUNCTION      0.00   401.58     0  02:21           0         2.9      -0.187
  WS02006235           JUNCTION      0.00   408.30     0  02:17           0        2.92       0.250
  WS02006238           JUNCTION      0.00   400.90     0  01:53           0         2.9      -0.216
  WS02006239           JUNCTION      0.00   400.71     0  01:48           0        2.89      -0.167
  WS02006240           JUNCTION      0.00   401.08     0  01:57           0        2.88      -0.053
  WS02006242           JUNCTION      0.00   400.77     0  01:47           0        2.88      -0.002
  WS02006243           JUNCTION      0.00   402.08     0  02:30           0        2.88       0.025
  WS02006245           JUNCTION      0.00   403.56     0  02:21           0        2.89       0.333
  WS02006247           JUNCTION      0.00   401.16     0  02:23           0        2.89       0.006
  WS02006248           JUNCTION      0.00   401.07     0  01:47           0        2.89       0.090
  WS02006249           JUNCTION      0.00   458.97     0  00:00           0         2.9       0.225
  WS02006251           JUNCTION      0.08   401.26     0  01:41     0.00222         2.9      -0.003
  WS02006252           JUNCTION      0.00   400.00     0  00:00           0        2.89      -0.031
  WS02006256           JUNCTION      0.00   300.00     0  00:00           0      0.0242      -5.793
  WSF200               JUNCTION      0.00   411.86     0  03:08           0        3.08       0.019
  YS02001580           JUNCTION      0.00   248.03     0  01:36           0     0.00475      -3.613
  YS02001583           JUNCTION      0.00   269.88     0  01:36           0      0.0146     -14.046
  YS02001586           JUNCTION    491.84   492.05     0  01:42        1.23        1.24       0.124
  YS02001590           JUNCTION      0.00   317.98     0  01:42           0         1.1       0.056
  YS02001593           JUNCTION      0.00   318.13     0  01:56           0         1.1       0.035
  YS02001596           JUNCTION      0.00   318.09     0  01:48           0         1.1       0.341
  YS02001600           JUNCTION      0.00   318.04     0  01:55           0         1.1       0.734
  YS02001601           JUNCTION    898.95  1216.29     0  01:40        1.64        2.73       0.301
  YS02001602           JUNCTION      0.00   588.92     0  01:36           0        1.91       0.473
  YS02001605           JUNCTION      0.00   588.83     0  01:36           0        1.81       0.758
  YS02001607           JUNCTION      0.00   588.71     0  01:36           0        1.79       1.193
  YS02001610           JUNCTION      0.00   559.24     0  01:36           0        1.78       1.284
  YS02001613           JUNCTION      0.00   529.91     0  01:36           0        1.47       1.649
  YS02001616           JUNCTION      0.00   461.50     0  01:36           0        1.46       1.496
  YS02001619           JUNCTION    847.40   904.56     0  01:36         1.9        3.33       0.648
  YS02001622           JUNCTION      0.00   855.69     0  01:39           0         3.3       0.898
  YS02001625           JUNCTION      0.00   924.21     0  01:41           0        3.28       1.367
  YS02001629           JUNCTION      0.00   788.11     0  01:59           0        2.78       0.816
  YS02001633           JUNCTION    685.63  1371.88     0  01:37        1.24        3.96       0.806
  YS02001641           JUNCTION      0.00  1368.05     0  01:37           0        3.89       0.534
  YS02001644           JUNCTION    591.42  1890.09     0  01:37        1.02        4.88       0.528
  YS02001647           JUNCTION      0.00  1890.80     0  01:37           0        4.83       0.573
  YS02001649           JUNCTION      0.00  2229.10     0  01:38           0        5.73       0.654
  YS02001652           JUNCTION      0.00   704.10     0  01:41           0       0.965       2.370
  YS02001655           JUNCTION      0.15   816.11     0  01:38     0.00443       0.982       2.076
  YS02001658           JUNCTION      0.00   731.91     0  01:39           0           1       1.509
  YS02001661           JUNCTION      0.00   782.70     0  01:40           0       0.996       0.788
  YS02001664           JUNCTION    594.14   594.14     0  01:39        0.97        0.97      -0.042
  YS02001745           JUNCTION    377.76   437.74     0  01:39       0.556       0.587       1.036
  YS02001748           JUNCTION      0.04   642.30     0  01:39      0.0013       0.599       2.208
  YS02001751           JUNCTION      0.01   468.53     0  01:40    0.000317       0.581       3.871
  YS02001754           JUNCTION      0.26   467.72     0  01:40     0.00749       0.576       4.083
  YS02001757           JUNCTION      0.00  3411.81     0  01:40           0        8.07       1.202
  YS02001759           JUNCTION    545.06  1308.40     0  01:38       0.813        1.88       1.209
  YS02001762           JUNCTION      0.00   764.92     0  01:39           0        1.09       1.963
  YS02001765           JUNCTION      0.00   761.66     0  01:39           0        1.11       2.229
  YS02001767           JUNCTION      0.54   759.12     0  01:39      0.0154        1.14       3.207
  YS02001770           JUNCTION    745.82   753.26     0  01:39         1.2        1.22       2.662
  YS02001774           JUNCTION      0.00   589.45     0  01:38           0      0.0665      60.324
  YS02001779           JUNCTION      0.01   598.58     0  01:38    0.000144      0.0291     107.542
  YS02001783           JUNCTION      0.00  1154.00     0  01:38           0         3.1       0.215
  YS02001784           JUNCTION      1.06  1155.13     0  01:38      0.0305        3.13       0.332
  YS02001786           JUNCTION      0.06  1155.18     0  01:38     0.00162        3.12       0.428
  YS02001788           JUNCTION      0.07  1157.56     0  01:38     0.00204        3.11       0.424
  YS02001790           JUNCTION      0.15  1170.78     0  01:40     0.00446         3.1       0.563
  YS02001791           JUNCTION      0.00  1257.50     0  01:38           0        3.08       0.442
  YS02001793           JUNCTION      0.00  1213.79     0  01:39           0        3.07       0.511
  YS02001882           JUNCTION      0.00   119.02     0  01:37           0      0.0121       3.399
  YS02001884           JUNCTION      0.00   158.41     0  01:37           0      0.0476       5.430
  YS02001887           JUNCTION    602.16   603.01     0  01:38       0.844       0.877       0.479
  YS02001890           JUNCTION      0.00   603.65     0  01:38           0       0.837       0.573
  YS02001895           JUNCTION      0.00   606.37     0  01:37           0       0.824       0.170
  YS02001898           JUNCTION      0.00   609.12     0  01:37           0       0.822      -0.068
  YS02001901           JUNCTION      0.00   613.08     0  01:37           0       0.825       0.412
  YS02001904           JUNCTION      0.00   614.97     0  01:37           0       0.832       0.284
  YS02001907           JUNCTION      0.00  1592.77     0  01:39           0        2.53       0.664
  YS02001910           JUNCTION      0.00  1060.40     0  01:39           0         1.7       0.408
  YS02001915           JUNCTION    604.81  1059.99     0  01:39        1.03        1.76       0.062
  YS02001918           JUNCTION      0.00   750.12     0  01:37           0       0.755      -0.031
  YS02001920           JUNCTION      2.87   694.28     0  01:38      0.0827       0.727       0.107
  YS02001923           JUNCTION      0.04   917.29     0  01:37     0.00109       0.625      -0.254
  YS02001926           JUNCTION      0.05  1204.20     0  01:38      0.0015       0.605      -0.141
  YS02001929           JUNCTION    304.04   899.70     0  01:38       0.582       0.589      -0.082
  YS02006553           JUNCTION      0.00   669.83     0  01:54           0        1.98       0.585
  YS02006556           JUNCTION      0.00   670.07     0  01:55           0        1.99       0.339
  YS02006558           JUNCTION    744.34  1168.49     0  01:38        1.17        3.14       0.099
  YS02006561           JUNCTION      0.00  1168.09     0  01:38           0         3.1      -0.013
  YS02163301           JUNCTION      0.00   787.12     0  01:59           0        2.76       0.865
  YS02163601           JUNCTION      0.11  1371.43     0  01:37     0.00317        3.92       0.756
  YS02164001           JUNCTION      0.00  1370.52     0  01:37           0         3.9       0.493
  CC-1                 OUTFALL       0.00   683.00     0  00:00           0       0.208       0.000
  CC-2                 OUTFALL       0.00   683.00     0  00:00           0       0.208       0.000
  JK-1                 OUTFALL       0.00  1000.00     0  00:00           0      0.0791       0.000
  JK-2                 OUTFALL       0.00  1000.00     0  00:00           0      0.0791       0.000
  WSC                  OUTFALL       0.00   818.14     0  03:27           0        14.5       0.000
  CC-storage           STORAGE       0.00  3414.02     0  01:40           0        10.2       0.412
  JK-storage           STORAGE       0.00  1158.86     0  01:39           0         3.2       0.506
  XR-storage           STORAGE     200.00   200.00     0  00:00        5.76        6.36     -41.886
  
  
  **********************
  Node Surcharge Summary
  **********************
  
  Surcharging occurs when water rises above the top of the highest conduit.
  ---------------------------------------------------------------------
                                               Max. Height   Min. Depth
                                   Hours       Above Crown    Below Rim
  Node                 Type      Surcharged         Meters       Meters
  ---------------------------------------------------------------------
  WS02006109           JUNCTION        1.70          0.017        1.803
  WS02006228           JUNCTION        1.69          0.020        2.180
  WS02006229           JUNCTION        1.71          0.029        2.421
  WS02006232           JUNCTION        1.75          0.050        1.430
  WS02006235           JUNCTION        1.70          0.055        1.235
  WS02006238           JUNCTION        1.72          0.082        1.348
  WS02006239           JUNCTION        1.71          0.066        1.224
  WS02006240           JUNCTION        1.71          0.079        1.311
  WS02006242           JUNCTION        1.78          0.174        0.646
  WS02006243           JUNCTION        1.72          0.133        0.637
  WS02006245           JUNCTION        1.72          0.146        0.704
  WS02006247           JUNCTION        1.73          0.182        0.578
  WS02006248           JUNCTION        1.72          0.138        0.242
  WS02006249           JUNCTION        1.73          0.200        0.190
  WS02006252           JUNCTION        2.01          1.100        0.000
  WS02006256           JUNCTION        2.92          2.050        0.000
  YS02001580           JUNCTION        0.44          0.450        0.000
  YS02001583           JUNCTION        0.45          0.500        0.000
  YS02001586           JUNCTION        0.66          0.510        0.000
  YS02001590           JUNCTION        0.77          0.750        0.000
  YS02001593           JUNCTION        0.77          0.831        0.009
  YS02001596           JUNCTION        1.02          1.029        0.041
  YS02001600           JUNCTION        1.63          1.190        0.000
  YS02001601           JUNCTION        6.49          1.440        0.000
  YS02001602           JUNCTION        6.47          1.270        0.000
  YS02001605           JUNCTION        6.46          1.180        0.000
  YS02001607           JUNCTION        1.42          0.680        0.000
  YS02001610           JUNCTION        3.68          0.680        0.000
  YS02001613           JUNCTION        1.44          0.700        0.000
  YS02001616           JUNCTION        1.15          0.610        0.000
  YS02001619           JUNCTION        1.09          0.610        0.000
  YS02001622           JUNCTION        1.18          0.582        0.038
  YS02001625           JUNCTION        6.40          0.780        0.000
  YS02001629           JUNCTION        1.04          0.470        0.000
  YS02001633           JUNCTION        6.40          1.049        0.011
  YS02001641           JUNCTION        6.40          1.100        0.000
  YS02001644           JUNCTION        6.40          0.920        0.000
  YS02001647           JUNCTION        6.38          0.796        0.104
  YS02001649           JUNCTION        6.38          0.991        0.059
  YS02001652           JUNCTION        6.36          1.130        0.000
  YS02001655           JUNCTION        0.84          1.200        0.000
  YS02001658           JUNCTION        0.04          0.589        0.711
  YS02001748           JUNCTION        0.01          0.427        0.763
  YS02001751           JUNCTION        0.18          0.581        0.619
  YS02001754           JUNCTION        6.35          1.150        0.000
  YS02001757           JUNCTION        6.37          0.863        0.347
  YS02001759           JUNCTION        6.37          0.841        0.369
  YS02001762           JUNCTION        6.36          0.850        0.300
  YS02001765           JUNCTION        6.36          0.892        0.208
  YS02001767           JUNCTION        6.36          1.010        0.020
  YS02001770           JUNCTION        6.36          0.920        0.000
  YS02001774           JUNCTION        6.36          0.980        0.070
  YS02001779           JUNCTION        6.36          0.680        0.000
  YS02001783           JUNCTION        0.56          1.498        0.102
  YS02001784           JUNCTION        0.57          1.490        0.000
  YS02001786           JUNCTION        0.55          1.430        0.000
  YS02001788           JUNCTION        0.50          1.480        0.000
  YS02001790           JUNCTION        6.33          1.157        0.000
  YS02001791           JUNCTION        6.33          0.946        0.974
  YS02001793           JUNCTION        6.33          0.995        1.605
  YS02001882           JUNCTION        0.41          0.830        0.000
  YS02001884           JUNCTION        0.42          0.837        0.033
  YS02001887           JUNCTION        0.45          0.804        0.146
  YS02001890           JUNCTION        0.46          0.760        0.000
  YS02001895           JUNCTION        0.40          0.750        0.000
  YS02001898           JUNCTION        0.39          0.740        0.000
  YS02001901           JUNCTION        0.44          0.822        0.048
  YS02001904           JUNCTION        0.43          0.667        0.183
  YS02001907           JUNCTION        0.60          0.950        0.000
  YS02001910           JUNCTION        0.48          1.026        0.074
  YS02001915           JUNCTION        0.41          1.000        0.000
  YS02001918           JUNCTION        0.32          0.810        0.000
  YS02001920           JUNCTION        0.33          1.140        0.000
  YS02001923           JUNCTION        0.01          0.820        0.000
  YS02001926           JUNCTION        0.02          0.900        0.000
  YS02001929           JUNCTION        0.01          0.780        0.000
  YS02006553           JUNCTION        0.61          1.171        0.019
  YS02006556           JUNCTION        0.54          1.350        0.000
  YS02006558           JUNCTION        0.54          1.400        0.000
  YS02006561           JUNCTION        0.35          1.029        0.121
  YS02163301           JUNCTION        6.40          0.949        0.081
  YS02163601           JUNCTION        6.41          1.080        0.000
  YS02164001           JUNCTION        6.40          1.100        0.000
  
  
  *********************
  Node Flooding Summary
  *********************
  
  Flooding refers to all water that overflows a node, whether it ponds or not.
  --------------------------------------------------------------------------
                                                             Total   Maximum
                                 Maximum   Time of Max       Flood    Ponded
                        Hours       Rate    Occurrence      Volume     Depth
  Node                 Flooded       LPS   days hr:min    10^6 ltr    Meters
  --------------------------------------------------------------------------
  WS02006252              0.01    245.63      0  00:00       0.000     0.000
  WS02006256              0.02    293.19      0  00:00       0.005     0.000
  YS02001580              0.01    231.46      0  01:36       0.001     0.000
  YS02001583              0.01    218.57      0  01:36       0.001     0.000
  YS02001586              0.33    187.65      0  01:36       0.127     0.000
  YS02001590              0.01     81.58      0  01:35       0.000     0.000
  YS02001600              0.01     12.07      0  01:35       0.000     0.000
  YS02001601              0.58    818.43      0  01:40       0.811     0.000
  YS02001602              0.53     62.01      0  01:55       0.095     0.000
  YS02001605              0.01     11.17      0  01:36       0.000     0.000
  YS02001607              0.01    295.32      0  01:36       0.002     0.000
  YS02001610              0.39    350.81      0  01:42       0.287     0.000
  YS02001613              0.01    136.35      0  01:36       0.000     0.000
  YS02001616              0.01    153.69      0  01:36       0.001     0.000
  YS02001619              0.01    185.99      0  01:36       0.001     0.000
  YS02001625              0.37    923.86      0  01:41       0.459     0.000
  YS02001629              0.05    234.18      0  01:36       0.009     0.000
  YS02001641              0.01      4.53      0  02:13       0.000     0.000
  YS02001644              0.03    176.91      0  01:40       0.012     0.000
  YS02001652              0.01    126.84      0  01:38       0.000     0.000
  YS02001655              0.01    587.94      0  01:38       0.001     0.000
  YS02001754              0.01    233.83      0  01:38       0.000     0.000
  YS02001770              0.01    218.26      0  01:38       0.000     0.000
  YS02001779              0.01    557.68      0  01:38       0.007     0.000
  YS02001784              0.01      2.94      0  01:40       0.000     0.000
  YS02001786              0.01     91.77      0  01:40       0.000     0.000
  YS02001788              0.01    152.12      0  01:40       0.000     0.000
  YS02001790              0.01     82.08      0  01:40       0.000     0.000
  YS02001882              0.01     17.01      0  01:37       0.000     0.000
  YS02001890              0.05    243.20      0  01:37       0.008     0.000
  YS02001895              0.01    200.56      0  01:37       0.000     0.000
  YS02001898              0.01    137.72      0  01:37       0.000     0.000
  YS02001907              0.26   1263.74      0  01:40       0.531     0.000
  YS02001915              0.01    271.01      0  01:37       0.000     0.000
  YS02001918              0.01    330.26      0  01:37       0.003     0.000
  YS02001920              0.01     70.09      0  01:38       0.000     0.000
  YS02001923              0.01    327.37      0  01:38       0.002     0.000
  YS02001926              0.01    750.24      0  01:38       0.003     0.000
  YS02001929              0.01    750.19      0  01:38       0.002     0.000
  YS02006556              0.01     13.28      0  01:40       0.000     0.000
  YS02006558              0.01      9.79      0  01:40       0.000     0.000
  YS02163601              0.01      5.55      0  01:38       0.000     0.000
  YS02164001              0.01      7.51      0  02:13       0.000     0.000
  CC-storage              1.64    424.62      0  02:28       0.380     0.000
  JK-storage              6.32   1132.21      0  01:40       2.712     0.000
  
  
  **********************
  Storage Volume Summary
  **********************
  
  ------------------------------------------------------------------------------------------------
                         Average    Avg   Evap  Exfil     Maximum    Max    Time of Max    Maximum
                          Volume   Pcnt   Pcnt   Pcnt      Volume   Pcnt     Occurrence    Outflow
  Storage Unit           1000 m³   Full   Loss   Loss     1000 m³   Full    days hr:min        LPS
  ------------------------------------------------------------------------------------------------
  CC-storage               5.138   80.2    0.0    0.0       6.410  100.0       0  02:28    1783.53
  JK-storage               0.235   80.6    0.0    0.0       0.291  100.0       0  01:40    2300.00
  XR-storage               0.038    2.6    0.0    0.0       0.600   41.7       0  00:00     380.00
  
  
  ***********************
  Outfall Loading Summary
  ***********************
  
  -----------------------------------------------------------
                         Flow       Avg       Max       Total
                         Freq      Flow      Flow      Volume
  Outfall Node           Pcnt       LPS       LPS    10^6 ltr
  -----------------------------------------------------------
  CC-1                   1.39    683.00    683.00       0.208
  CC-2                   1.39    683.00    683.00       0.208
  JK-1                   1.30    347.46   1000.00       0.079
  JK-2                   1.30    347.46   1000.00       0.079
  WSC                   99.92    559.83    818.14      14.497
  -----------------------------------------------------------
  System                21.06   2620.75   3366.35      15.072
  
  
  ********************
  Link Flow Summary
  ********************
  
  -----------------------------------------------------------------------------
                                 Maximum  Time of Max   Maximum    Max/    Max/
                                  |Flow|   Occurrence   |Veloc|    Full    Full
  Link                 Type          LPS  days hr:min     m/sec    Flow   Depth
  -----------------------------------------------------------------------------
  1                    CONDUIT    818.14     0  03:27      3.15    0.28    0.37
  WS02001211WS02001212 CONDUIT    390.85     0  03:34      0.78    0.30    0.64
  WS02001212WS02001213 CONDUIT    392.60     0  03:35      1.32    0.61    0.45
  WS02001213WS02003059 CONDUIT    395.64     0  03:35      0.85    0.65    0.75
  WS02003059WS02003060 CONDUIT    399.94     0  03:35      0.95    0.26    0.63
  WS02003060WS02003069 CONDUIT    816.03     0  03:09      1.80    0.32    0.42
  WS02003066WSF200     CONDUIT    411.86     0  03:08      2.69    0.07    0.19
  WS02003067WS02003066 CONDUIT    411.87     0  03:08      1.04    0.13    0.38
  WS02003069WS02003072 CONDUIT    816.33     0  03:10      1.55    0.39    0.47
  WS02003072WS02003073 CONDUIT    816.33     0  03:26      1.64    1.76    0.45
  WS02004138WS02004139 CONDUIT    395.20     0  00:00      3.65    0.08    0.43
  WS02004139WS02001211 CONDUIT    381.79     0  03:34      0.91    0.48    0.59
  WS02004401WS02004402 CONDUIT    412.13     0  02:46      0.99    0.49    0.77
  WS02004402WS02004403 CONDUIT    412.06     0  02:44      0.99    0.59    0.79
  WS02004403WS02004404 CONDUIT    412.00     0  02:44      0.93    0.30    0.84
  WS02004404WS02004405 CONDUIT    412.21     0  02:44      1.10    4.04    0.88
  WS02004405WS02004406 CONDUIT    412.37     0  02:44      1.03    0.81    0.88
  WS02004406WS02004407 CONDUIT    412.06     0  02:44      0.89    0.18    0.57
  WS02004407WS02004409 CONDUIT    411.98     0  02:45      1.42    0.15    0.42
  WS02004409WS02004410 CONDUIT    411.94     0  03:06      0.92    0.53    0.58
  WS02004410WS02004411 CONDUIT    411.91     0  03:07      0.85    0.56    0.60
  WS02004411WS02004412 CONDUIT    411.91     0  03:07      0.81    0.59    0.61
  WS02004412WS02004413 CONDUIT    411.94     0  03:07      0.70    0.28    0.70
  WS02004413WS02003067 CONDUIT    411.86     0  03:08      0.96    0.18    0.53
  WS02006109WS02006110 CONDUIT    411.82     0  02:03      0.84    0.79    0.94
  WS02006110WS02006113 CONDUIT    411.94     0  02:09      1.03    0.37    0.75
  WS02006111WS02006112 CONDUIT    414.03     0  03:21      1.83    0.20    0.65
  WS02006112WS02006115 CONDUIT    412.41     0  02:41      0.71    0.24    0.78
  WS02006113WS02006111 CONDUIT    423.37     0  02:45      2.25    0.51    0.40
  WS02006115WS02006116 CONDUIT    412.28     0  02:45      0.98    0.53    0.66
  WS02006116WS02004401 CONDUIT    412.25     0  02:43      1.00    0.57    0.74
  WS02006228WS02006109 CONDUIT    411.18     0  02:02      1.06    1.80    1.00
  WS02006229WS02006228 CONDUIT    412.48     0  02:02      1.13    1.37    1.00
  WS02006230WS02006229 CONDUIT    410.79     0  02:02      1.22    9.14    1.00
  WS02006231WS02006230 CONDUIT    400.30     0  02:08      1.37    6.07    0.77
  WS02006232WS02006231 CONDUIT    400.33     0  02:03      1.08    0.84    0.92
  WS02006234WS02006232 CONDUIT    400.31     0  02:03      1.40    0.81    1.00
  WS02006235WS02006234 CONDUIT    401.58     0  02:21      1.29    4.24    0.99
  WS02006238WS02006235 CONDUIT    408.28     0  02:17      1.50    0.91    1.00
  WS02006239WS02006238 CONDUIT    400.90     0  01:53      1.21    1.28    1.00
  WS02006240WS02006239 CONDUIT    400.71     0  01:48      1.30    1.26    1.00
  WS02006242WS02006240 CONDUIT    401.08     0  01:57      1.17    1.59    1.00
  WS02006243WS02006242 CONDUIT    400.77     0  01:47      1.44    0.86    1.00
  WS02006245WS02006243 CONDUIT    402.08     0  02:30      1.45    1.19    1.00
  WS02006247WS02006245 CONDUIT    403.56     0  02:21      1.43    3.20    1.00
  WS02006248WS02006247 CONDUIT    401.16     0  02:23      1.42    0.87    1.00
  WS02006249WS02006248 CONDUIT    401.07     0  01:47      1.37    2.20    1.00
  WS02006251WS02006249 CONDUIT    458.97     0  00:00      1.99    1.32    1.00
  WS02006252WS02006251 CONDUIT    401.19     0  01:41     24.55    1.47    1.00
  WS02006256WS02006235 CONDUIT    288.91     0  00:00      4.23    3.06    1.00
  WSF200WS02003060     CONDUIT    411.87     0  03:09      1.43    0.09    0.30
  YS02001580YS02001583 CONDUIT    248.03     0  01:36      1.05    0.96    1.00
  YS02001583YS02001586 CONDUIT    249.20     0  01:36      1.12    0.38    1.00
  YS02001586YS02001590 CONDUIT    317.98     0  01:42      1.32    0.56    1.00
  YS02001590YS02001593 CONDUIT    318.13     0  01:56      1.13    2.00    1.00
  YS02001593YS02001596 CONDUIT    318.09     0  01:48      1.61    0.50    1.00
  YS02001596YS02001600 CONDUIT    318.04     0  01:55      1.12    0.62    1.00
  YS02001600YS02001601 CONDUIT    317.93     0  01:44      1.12    0.55    1.00
  YS02001601YS02001602 CONDUIT    588.92     0  01:36      2.08    2.13    1.00
  YS02001602YS02001605 CONDUIT    588.83     0  01:36      2.08   12.46    1.00
  YS02001605YS02001607 CONDUIT    588.71     0  01:36      2.08    3.23    1.00
  YS02001607YS02001610 CONDUIT    559.24     0  01:36      0.75    0.53    1.00
  YS02001610YS02001613 CONDUIT    529.91     0  01:36      0.70    0.61    1.00
  YS02001613YS02001616 CONDUIT    461.50     0  01:36      0.68    0.40    1.00
  YS02001616YS02001619 CONDUIT    414.71     0  02:09      0.65    0.72    1.00
  YS02001619YS02001622 CONDUIT    855.69     0  01:39      1.37    1.26    1.00
  YS02001622YS02001625 CONDUIT    855.35     0  01:39      1.09    0.46    1.00
  YS02001625YS02001629 CONDUIT    788.11     0  01:59      1.00    0.37    1.00
  YS02001629YS02163301 CONDUIT    787.12     0  01:59      1.00    0.97    1.00
  YS02001633YS02163601 CONDUIT   1371.32     0  01:37      1.75    1.44    1.00
  YS02001641YS02001644 CONDUIT   1366.77     0  01:37      1.74    4.42    1.00
  YS02001644YS02001647 CONDUIT   1890.80     0  01:37      2.41    1.11    1.00
  YS02001647YS02001649 CONDUIT   1893.97     0  01:37      2.41    1.00    1.00
  YS02001649YS02001757 CONDUIT   2229.69     0  01:38      2.84    1.35    1.00
  YS02001652YS02001649 CONDUIT    703.95     0  01:41      0.90    0.35    1.00
  YS02001655YS02001652 CONDUIT    704.10     0  01:41      1.63    0.34    1.00
  YS02001658YS02001655 CONDUIT    815.96     0  01:38      2.13    0.35    1.00
  YS02001661YS02001658 CONDUIT    731.91     0  01:39      2.48    0.29    0.96
  YS02001664YS02001661 CONDUIT    782.70     0  01:40      2.46    0.25    0.69
  YS02001745YS02001748 CONDUIT    571.79     0  01:39      2.36    0.22    0.86
  YS02001748YS02001751 CONDUIT    468.52     0  01:40      1.95    0.24    1.00
  YS02001751YS02001754 CONDUIT    467.46     0  01:40      1.65    0.23    1.00
  YS02001754YS02001757 CONDUIT    467.82     0  01:40      0.62    0.19    1.00
  YS02001757CaochengTiaoxuchi CONDUIT   3414.02     0  01:40      4.48    1.48    1.00
  YS02001759YS02001757 CONDUIT   1309.72     0  01:38      1.67    0.93    1.00
  YS02001762YS02001759 CONDUIT    767.78     0  01:39      0.98    0.88    1.00
  YS02001765YS02001762 CONDUIT    764.92     0  01:39      0.97    0.72    1.00
  YS02001767YS02001765 CONDUIT    761.66     0  01:39      0.97    0.96    1.00
  YS02001770YS02001767 CONDUIT    758.59     0  01:39      0.97    3.00    1.00
  YS02001774YS02001770 CONDUIT    589.45     0  01:38      0.75    0.38    1.00
  YS02001779YS02001774 CONDUIT    598.57     0  01:38      0.76    0.30    1.00
  YS02001783YS02001784 CONDUIT   1154.07     0  01:38      2.30    1.59    1.00
  YS02001784YS02001785 CONDUIT   1155.12     0  01:38      2.30    2.69    1.00
  YS02001786YS02001788 CONDUIT   1157.49     0  01:38      2.48    2.23    1.00
  YS02001788YS02001790 CONDUIT   1170.63     0  01:40      2.72    0.86    1.00
  YS02001790YS02001791 CONDUIT   1257.50     0  01:38      3.39    1.37    1.00
  YS02001791YS02001793 CONDUIT   1213.79     0  01:39      6.49    0.52    1.00
  YS02001793JiankangQianchi CONDUIT   1158.86     0  01:39      2.31    0.09    1.00
  YS02001882YS02001884 CONDUIT    119.02     0  01:37      0.15    0.14    1.00
  YS02001884YS02001887 CONDUIT    158.41     0  01:37      0.20    0.21    1.00
  YS02001887YS02001890 CONDUIT    603.65     0  01:38      0.77    1.03    1.00
  YS02001890YS02001895 CONDUIT    606.37     0  01:37      0.77    0.28    1.00
  YS02001895YS02001898 CONDUIT    609.12     0  01:37      0.78    1.06    1.00
  YS02001898YS02001901 CONDUIT    613.08     0  01:37      0.78    0.40    1.00
  YS02001901YS02001904 CONDUIT    614.97     0  01:37      0.78    0.95    1.00
  YS02001904YS02001907 CONDUIT    617.48     0  01:37      0.79    0.22    1.00
  YS02001907YS02006553 CONDUIT    669.83     0  01:54      0.74    0.79    1.00
  YS02001910YS02001907 CONDUIT   1060.61     0  01:39      1.35    0.60    1.00
  YS02001915YS02001910 CONDUIT   1060.40     0  01:39      1.35    0.53    1.00
  YS02001918YS02001915 CONDUIT    750.12     0  01:37      0.98    0.41    1.00
  YS02001920YS02001918 CONDUIT    691.41     0  01:38      0.88    0.67    1.00
  YS02001923YS02001920 CONDUIT    703.98     0  01:37      0.93    0.32    1.00
  YS02001926YS02001923 CONDUIT    966.99     0  01:38      1.40    1.38    1.00
  YS02001929YS02001926 CONDUIT    618.98     0  01:38      1.25    0.29    1.00
  YS02006553YS02006556 CONDUIT    670.07     0  01:55      0.85    0.57    1.00
  YS02006556YS02006558 CONDUIT    673.56     0  01:55      0.86    0.53    1.00
  YS02006558YS02006561 CONDUIT   1168.09     0  01:38      4.13    2.58    1.00
  YS02006561YS02001783 CONDUIT   1154.00     0  01:38      2.30    0.60    1.00
  YS02163301YS02001633 CONDUIT    787.07     0  01:59      1.00    0.74    1.00
  YS02163601YS02164001 CONDUIT   1370.52     0  01:37      1.74    1.21    1.00
  YS02164001YS02001641 CONDUIT   1368.05     0  01:37      1.74    1.87    1.00
  CC-R1                PUMP       683.00     0  00:00              1.00
  CC-R2                PUMP       683.00     0  00:00              1.00
  CC-S1                PUMP       200.00     0  00:00              1.00
  CC-S2                PUMP       200.00     0  00:00              1.00
  JK-R1                PUMP      1000.00     0  00:00              1.00
  JK-R2                PUMP      1000.00     0  00:00              1.00
  JK-S                 PUMP       300.00     0  00:00              1.00
  XR-1                 PUMP        95.00     0  00:00              1.00
  XR-2                 PUMP        95.00     0  00:00              1.00
  XR-3                 PUMP        95.00     0  00:00              1.00
  XR-4                 PUMP        95.00     0  00:00              1.00
  
  
  ***************************
  Flow Classification Summary
  ***************************
  
  -------------------------------------------------------------------------------------
                      Adjusted    ---------- Fraction of Time in Flow Class ---------- 
                       /Actual         Up    Down  Sub   Sup   Up    Down  Norm  Inlet 
  Conduit               Length    Dry  Dry   Dry   Crit  Crit  Crit  Crit  Ltd   Ctrl  
  -------------------------------------------------------------------------------------
  1                       1.00   0.00  0.00  0.00  0.00  1.00  0.00  0.00  0.18  0.00
  WS02001211WS02001212    1.00   0.00  0.00  0.00  1.00  0.00  0.00  0.00  0.00  0.00
  WS02001212WS02001213    1.00   0.00  0.00  0.00  0.35  0.00  0.65  0.00  0.00  0.00
  WS02001213WS02003059    1.00   0.00  0.00  0.00  0.99  0.00  0.00  0.00  0.00  0.00
  WS02003059WS02003060    1.00   0.00  0.00  0.00  1.00  0.00  0.00  0.00  0.00  0.00
  WS02003060WS02003069    1.00   0.00  0.00  0.00  0.99  0.01  0.00  0.00  0.00  0.00
  WS02003066WSF200        1.00   0.02  0.10  0.00  0.00  0.88  0.00  0.00  0.87  0.00
  WS02003067WS02003066    1.00   0.10  0.02  0.00  0.89  0.00  0.00  0.00  0.00  0.00
  WS02003069WS02003072    1.00   0.00  0.00  0.00  0.99  0.01  0.00  0.00  0.00  0.00
  WS02003072WS02003073    1.00   0.00  0.00  0.00  0.00  0.00  0.00  1.00  0.00  0.00
  WS02004138WS02004139    1.00   0.00  0.00  0.00  0.99  0.01  0.00  0.00  1.00  0.00
  WS02004139WS02001211    1.00   0.00  0.00  0.00  1.00  0.00  0.00  0.00  0.00  0.00
  WS02004401WS02004402    1.00   0.02  0.00  0.00  0.98  0.00  0.00  0.00  0.00  0.00
  WS02004402WS02004403    1.00   0.02  0.00  0.00  0.98  0.00  0.00  0.00  0.00  0.00
  WS02004403WS02004404    1.00   0.00  0.03  0.00  0.97  0.00  0.00  0.00  0.00  0.00
  WS02004404WS02004405    1.00   0.00  0.00  0.00  1.00  0.00  0.00  0.00  0.00  0.00
  WS02004405WS02004406    1.00   0.00  0.00  0.00  1.00  0.00  0.00  0.00  0.00  0.00
  WS02004406WS02004407    1.00   0.00  0.05  0.00  0.95  0.00  0.00  0.00  0.00  0.00
  WS02004407WS02004409    1.00   0.05  0.00  0.00  0.94  0.01  0.00  0.00  0.94  0.00
  WS02004409WS02004410    1.00   0.05  0.00  0.00  0.95  0.00  0.00  0.00  0.02  0.00
  WS02004410WS02004411    1.00   0.05  0.00  0.00  0.95  0.00  0.00  0.00  0.00  0.00
  WS02004411WS02004412    1.00   0.05  0.00  0.00  0.95  0.00  0.00  0.00  0.00  0.00
  WS02004412WS02004413    1.00   0.05  0.00  0.00  0.94  0.00  0.00  0.00  0.01  0.00
  WS02004413WS02003067    1.00   0.06  0.04  0.00  0.00  0.00  0.90  0.00  0.00  0.00
  WS02006109WS02006110    1.00   0.00  0.01  0.00  0.98  0.00  0.01  0.00  0.00  0.00
  WS02006110WS02006113    1.00   0.01  0.01  0.00  0.98  0.00  0.00  0.00  0.00  0.00
  WS02006111WS02006112    1.00   0.02  0.00  0.00  0.98  0.00  0.00  0.00  0.98  0.00
  WS02006112WS02006115    1.00   0.02  0.00  0.00  0.97  0.00  0.00  0.00  0.00  0.00
  WS02006113WS02006111    1.00   0.02  0.00  0.00  0.00  0.98  0.00  0.00  0.10  0.00
  WS02006115WS02006116    1.00   0.02  0.00  0.00  0.97  0.00  0.00  0.01  0.00  0.00
  WS02006116WS02004401    1.00   0.02  0.00  0.00  0.98  0.00  0.00  0.00  0.00  0.00
  WS02006228WS02006109    1.00   0.00  0.00  0.00  1.00  0.00  0.00  0.00  0.00  0.00
  WS02006229WS02006228    1.00   0.00  0.00  0.00  0.99  0.00  0.00  0.01  0.00  0.00
  WS02006230WS02006229    1.00   0.00  0.00  0.00  0.99  0.00  0.00  0.01  0.00  0.00
  WS02006231WS02006230    1.00   0.00  0.00  0.00  0.23  0.00  0.77  0.00  0.00  0.00
  WS02006232WS02006231    1.00   0.00  0.00  0.00  0.99  0.00  0.01  0.00  0.00  0.00
  WS02006234WS02006232    1.00   0.00  0.00  0.00  1.00  0.00  0.00  0.00  0.54  0.00
  WS02006235WS02006234    1.00   0.00  0.00  0.00  0.42  0.00  0.58  0.00  0.00  0.00
  WS02006238WS02006235    1.00   0.00  0.00  0.00  1.00  0.00  0.00  0.00  0.00  0.00
  WS02006239WS02006238    1.00   0.00  0.00  0.00  1.00  0.00  0.00  0.00  0.63  0.00
  WS02006240WS02006239    1.00   0.00  0.00  0.00  0.33  0.00  0.00  0.67  0.01  0.00
  WS02006242WS02006240    1.00   0.00  0.00  0.00  0.99  0.00  0.01  0.00  0.00  0.00
  WS02006243WS02006242    1.00   0.00  0.00  0.00  0.99  0.00  0.00  0.01  0.72  0.00
  WS02006245WS02006243    1.00   0.00  0.00  0.00  0.38  0.00  0.00  0.62  0.00  0.00
  WS02006247WS02006245    1.00   0.00  0.00  0.00  0.99  0.00  0.00  0.01  0.00  0.00
  WS02006248WS02006247    1.00   0.00  0.00  0.00  0.99  0.00  0.00  0.01  0.12  0.00
  WS02006249WS02006248    1.00   0.00  0.00  0.00  0.28  0.00  0.72  0.00  0.00  0.00
  WS02006251WS02006249    1.00   0.00  0.00  0.00  1.00  0.00  0.00  0.00  0.73  0.00
  WS02006252WS02006251    1.00   0.00  0.75  0.00  0.00  0.00  0.25  0.00  0.00  0.00
  WS02006256WS02006235    1.00   0.00  0.00  0.00  1.00  0.00  0.00  0.00  0.00  0.00
  WSF200WS02003060        1.00   0.00  0.02  0.00  0.98  0.00  0.00  0.00  0.67  0.00
  YS02001580YS02001583    1.00   0.20  0.61  0.00  0.19  0.00  0.00  0.00  0.71  0.00
  YS02001583YS02001586    1.00   0.50  0.26  0.00  0.24  0.00  0.00  0.00  0.71  0.00
  YS02001586YS02001590    1.00   0.13  0.00  0.00  0.37  0.04  0.00  0.46  0.30  0.00
  YS02001590YS02001593    1.00   0.13  0.01  0.00  0.14  0.00  0.73  0.00  0.00  0.00
  YS02001593YS02001596    1.00   0.13  0.00  0.00  0.81  0.00  0.00  0.06  0.66  0.00
  YS02001596YS02001600    1.00   0.14  0.00  0.00  0.82  0.00  0.00  0.05  0.01  0.00
  YS02001600YS02001601    1.00   0.13  0.01  0.00  0.86  0.00  0.00  0.00  0.03  0.00
  YS02001601YS02001602    1.00   0.13  0.01  0.00  0.87  0.00  0.00  0.00  0.00  0.00
  YS02001602YS02001605    1.00   0.14  0.00  0.00  0.86  0.00  0.00  0.00  0.00  0.00
  YS02001605YS02001607    1.00   0.14  0.00  0.00  0.86  0.00  0.00  0.00  0.00  0.00
  YS02001607YS02001610    1.00   0.13  0.01  0.00  0.86  0.00  0.00  0.00  0.01  0.00
  YS02001610YS02001613    1.00   0.13  0.00  0.00  0.87  0.00  0.00  0.00  0.00  0.00
  YS02001613YS02001616    1.00   0.13  0.00  0.00  0.87  0.00  0.00  0.00  0.00  0.00
  YS02001616YS02001619    1.00   0.13  0.00  0.00  0.87  0.00  0.00  0.00  0.00  0.00
  YS02001619YS02001622    1.00   0.13  0.00  0.00  0.87  0.00  0.00  0.00  0.00  0.00
  YS02001622YS02001625    1.00   0.13  0.00  0.00  0.87  0.00  0.00  0.00  0.04  0.00
  YS02001625YS02001629    1.00   0.13  0.05  0.00  0.81  0.00  0.02  0.00  0.00  0.00
  YS02001629YS02163301    1.00   0.15  0.01  0.00  0.84  0.00  0.00  0.00  0.00  0.00
  YS02001633YS02163601    1.00   0.00  0.01  0.00  0.99  0.00  0.00  0.00  0.15  0.00
  YS02001641YS02001644    1.00   0.00  0.01  0.00  0.99  0.00  0.00  0.00  0.00  0.00
  YS02001644YS02001647    1.00   0.00  0.17  0.00  0.83  0.00  0.00  0.00  0.00  0.00
  YS02001647YS02001649    1.00   0.00  0.17  0.00  0.83  0.00  0.00  0.00  0.01  0.00
  YS02001649YS02001757    1.00   0.00  0.00  0.00  1.00  0.00  0.00  0.00  0.18  0.00
  YS02001652YS02001649    1.00   0.00  0.00  0.00  0.97  0.03  0.00  0.00  0.15  0.00
  YS02001655YS02001652    1.00   0.00  0.00  0.00  0.80  0.00  0.00  0.20  0.00  0.00
  YS02001658YS02001655    1.00   0.00  0.14  0.00  0.80  0.06  0.00  0.00  0.01  0.00
  YS02001661YS02001658    1.00   0.14  0.00  0.00  0.80  0.06  0.00  0.00  0.00  0.00
  YS02001664YS02001661    1.00   0.13  0.00  0.00  0.84  0.03  0.00  0.00  0.86  0.00
  YS02001745YS02001748    1.00   0.00  0.00  0.00  0.79  0.00  0.00  0.21  0.01  0.00
  YS02001748YS02001751    1.00   0.00  0.00  0.00  0.93  0.07  0.00  0.00  0.12  0.00
  YS02001751YS02001754    1.00   0.00  0.00  0.00  0.80  0.00  0.00  0.20  0.00  0.00
  YS02001754YS02001757    1.00   0.00  0.00  0.00  1.00  0.00  0.00  0.00  0.20  0.00
  YS02001757CaochengTiaoxuchi    1.00   0.00  0.00  0.00  0.99  0.01  0.00  0.00  0.19  0.00
  YS02001759YS02001757    1.00   0.00  0.00  0.00  1.00  0.00  0.00  0.00  0.06  0.00
  YS02001762YS02001759    1.00   0.00  0.00  0.00  1.00  0.00  0.00  0.00  0.03  0.00
  YS02001765YS02001762    1.00   0.00  0.00  0.00  1.00  0.00  0.00  0.00  0.15  0.00
  YS02001767YS02001765    1.00   0.00  0.00  0.00  1.00  0.00  0.00  0.00  0.00  0.00
  YS02001770YS02001767    1.00   0.00  0.00  0.00  1.00  0.00  0.00  0.00  0.00  0.00
  YS02001774YS02001770    1.00   0.00  0.13  0.00  0.87  0.00  0.00  0.00  0.03  0.00
  YS02001779YS02001774    1.00   0.00  0.00  0.00  1.00  0.00  0.00  0.00  0.17  0.00
  YS02001783YS02001784    1.00   0.00  0.18  0.00  0.82  0.00  0.00  0.00  0.00  0.00
  YS02001784YS02001785    1.00   0.00  0.00  0.00  1.00  0.00  0.00  0.00  0.16  0.00
  YS02001786YS02001788    1.00   0.00  0.00  0.00  0.98  0.02  0.00  0.00  0.00  0.00
  YS02001788YS02001790    1.00   0.00  0.00  0.00  0.97  0.03  0.00  0.00  0.18  0.00
  YS02001790YS02001791    1.00   0.00  0.00  0.00  0.80  0.20  0.00  0.00  0.01  0.00
  YS02001791YS02001793    1.00   0.00  0.00  0.00  0.79  0.21  0.00  0.00  0.00  0.00
  YS02001793JiankangQianchi    1.00   0.00  0.00  0.00  0.93  0.07  0.00  0.00  0.18  0.00
  YS02001882YS02001884    1.00   0.15  0.01  0.00  0.84  0.00  0.00  0.00  0.00  0.00
  YS02001884YS02001887    1.00   0.06  0.05  0.00  0.89  0.00  0.00  0.00  0.00  0.00
  YS02001887YS02001890    1.00   0.00  0.00  0.00  0.97  0.00  0.03  0.00  0.00  0.00
  YS02001890YS02001895    1.00   0.00  0.16  0.00  0.84  0.00  0.00  0.00  0.00  0.00
  YS02001895YS02001898    1.00   0.16  0.00  0.00  0.82  0.00  0.01  0.00  0.00  0.00
  YS02001898YS02001901    1.00   0.17  0.00  0.00  0.83  0.00  0.00  0.00  0.01  0.00
  YS02001901YS02001904    1.00   0.16  0.00  0.00  0.84  0.00  0.00  0.00  0.00  0.00
  YS02001904YS02001907    1.00   0.00  0.16  0.00  0.84  0.00  0.00  0.00  0.00  0.00
  YS02001907YS02006553    1.00   0.00  0.02  0.00  0.98  0.00  0.00  0.00  0.00  0.00
  YS02001910YS02001907    1.00   0.00  0.00  0.00  0.97  0.00  0.00  0.03  0.12  0.00
  YS02001915YS02001910    1.00   0.00  0.00  0.00  0.97  0.03  0.00  0.00  0.15  0.00
  YS02001918YS02001915    1.00   0.00  0.01  0.00  0.98  0.02  0.00  0.00  0.78  0.00
  YS02001920YS02001918    1.00   0.00  0.01  0.00  0.99  0.00  0.00  0.00  0.00  0.00
  YS02001923YS02001920    1.00   0.00  0.00  0.00  1.00  0.00  0.00  0.00  0.93  0.00
  YS02001926YS02001923    1.00   0.00  0.07  0.00  0.05  0.00  0.87  0.00  0.00  0.00
  YS02001929YS02001926    1.00   0.00  0.13  0.00  0.87  0.00  0.00  0.00  0.83  0.00
  YS02006553YS02006556    1.00   0.01  0.00  0.00  0.99  0.00  0.00  0.00  0.03  0.00
  YS02006556YS02006558    1.00   0.00  0.00  0.00  1.00  0.00  0.00  0.00  0.00  0.00
  YS02006558YS02006561    1.00   0.17  0.00  0.00  0.06  0.76  0.00  0.00  0.19  0.00
  YS02006561YS02001783    1.00   0.17  0.00  0.00  0.80  0.02  0.00  0.00  0.74  0.00
  YS02163301YS02001633    1.00   0.00  0.15  0.00  0.85  0.00  0.00  0.00  0.00  0.00
  YS02163601YS02164001    1.00   0.00  0.08  0.00  0.92  0.00  0.00  0.00  0.00  0.00
  YS02164001YS02001641    1.00   0.01  0.07  0.00  0.92  0.00  0.00  0.00  0.06  0.00
  
  
  *************************
  Conduit Surcharge Summary
  *************************
  
  ----------------------------------------------------------------------------
                                                           Hours        Hours 
                         --------- Hours Full --------   Above Full   Capacity
  Conduit                Both Ends  Upstream  Dnstream   Normal Flow   Limited
  ----------------------------------------------------------------------------
  WS02003072WS02003073        0.01      0.01      0.01      2.22         0.01
  WS02004404WS02004405        0.01      0.01      0.01      2.07         0.01
  WS02006109WS02006110        0.01      0.01      1.74      0.01         0.01
  WS02006110WS02006113        0.01      0.01      1.72      0.01         0.01
  WS02006111WS02006112        0.01      0.01      1.79      0.01         0.01
  WS02006228WS02006109        1.70      1.74      1.70      1.90         1.70
  WS02006229WS02006228        1.69      1.71      1.69      1.84         1.69
  WS02006230WS02006229        1.79      1.81      1.79      2.35         1.79
  WS02006231WS02006230        0.01      0.01      0.01      2.20         0.01
  WS02006232WS02006231        0.01      0.01      1.75      0.01         0.01
  WS02006234WS02006232        1.67      1.67      1.75      0.01         0.01
  WS02006235WS02006234        0.01      0.01      1.70      2.12         0.01
  WS02006238WS02006235        1.71      1.71      1.76      0.01         0.01
  WS02006239WS02006238        1.72      1.75      1.72      1.88         1.72
  WS02006240WS02006239        1.71      1.72      1.71      1.90         1.71
  WS02006242WS02006240        1.71      1.71      1.80      1.95         0.01
  WS02006243WS02006242        1.73      1.73      1.78      0.01         0.01
  WS02006245WS02006243        1.72      1.73      1.72      1.94         1.72
  WS02006247WS02006245        1.72      1.74      1.72      2.00         1.72
  WS02006248WS02006247        1.72      1.72      1.74      0.01         0.01
  WS02006249WS02006248        1.72      1.72      1.73      2.00         0.01
  WS02006251WS02006249        1.73      1.74      1.73      1.99         1.73
  WS02006252WS02006251        2.01      2.01      2.01      2.01         0.01
  WS02006256WS02006235        2.16      2.16      2.92      0.02         0.01
  YS02001580YS02001583        0.44      0.44      0.49      0.01         0.01
  YS02001583YS02001586        0.45      0.45      0.66      0.01         0.01
  YS02001586YS02001590        0.67      0.67      0.77      0.01         0.01
  YS02001590YS02001593        0.77      0.77      0.79      0.75         0.01
  YS02001593YS02001596        0.78      0.78      1.02      0.01         0.01
  YS02001596YS02001600        1.19      1.19      1.63      0.01         0.01
  YS02001600YS02001601        6.42      6.42      6.49      0.01         0.01
  YS02001601YS02001602        6.47      6.47      6.50      0.88         0.01
  YS02001602YS02001605        6.46      6.46      6.47      2.01         0.11
  YS02001605YS02001607        6.45      6.46      6.45      1.18         1.13
  YS02001607YS02001610        1.42      1.42      3.67      0.01         0.01
  YS02001610YS02001613        1.44      1.44      3.67      0.01         0.01
  YS02001613YS02001616        1.15      1.15      1.44      0.01         0.01
  YS02001616YS02001619        1.09      1.09      1.15      0.01         0.01
  YS02001619YS02001622        1.09      1.09      1.18      0.61         0.51
  YS02001622YS02001625        1.18      1.18      6.40      0.01         0.01
  YS02001625YS02001629        1.04      1.04      6.40      0.01         0.01
  YS02001629YS02163301        6.40      6.40      6.40      0.01         0.08
  YS02001633YS02163601        6.40      6.40      6.41      0.29         0.29
  YS02001641YS02001644        6.40      6.40      6.40      1.29         1.16
  YS02001644YS02001647        6.38      6.38      6.40      0.03         0.01
  YS02001647YS02001649        6.37      6.38      6.38      0.01         0.01
  YS02001649YS02001757        6.37      6.38      6.37      0.23         0.23
  YS02001652YS02001649        6.37      6.37      6.38      0.01         0.01
  YS02001655YS02001652        0.83      0.83      6.36      0.01         0.01
  YS02001658YS02001655        0.04      0.04      0.84      0.01         0.01
  YS02001661YS02001658        0.01      0.01      0.04      0.01         0.01
  YS02001745YS02001748        0.01      0.01      0.01      0.01         0.01
  YS02001748YS02001751        0.02      0.02      0.17      0.01         0.01
  YS02001751YS02001754        0.17      0.17      6.35      0.01         0.01
  YS02001754YS02001757        6.36      6.36      6.37      0.01         0.01
  YS02001757CaochengTiaoxuchi        6.29      6.37      6.29      0.26         0.16
  YS02001759YS02001757        6.37      6.37      6.37      0.01         0.01
  YS02001762YS02001759        6.36      6.36      6.37      0.01         0.02
  YS02001765YS02001762        6.36      6.36      6.36      0.01         0.01
  YS02001767YS02001765        6.36      6.36      6.36      0.01         0.02
  YS02001770YS02001767        6.36      6.36      6.36      0.38         0.48
  YS02001774YS02001770        6.36      6.36      6.36      0.01         0.01
  YS02001779YS02001774        6.36      6.36      6.36      0.01         0.01
  YS02001783YS02001784        0.56      0.56      0.57      0.51         0.49
  YS02001784YS02001785        0.55      0.57      0.55      0.70         0.55
  YS02001786YS02001788        0.50      0.55      0.50      0.62         0.50
  YS02001788YS02001790        0.50      0.50      6.33      0.01         0.01
  YS02001790YS02001791        6.33      6.33      6.33      0.31         0.25
  YS02001791YS02001793        6.33      6.33      6.34      0.01         0.01
  YS02001793JiankangQianchi        6.33      6.33      6.42      0.01         0.01
  YS02001882YS02001884        0.41      0.41      0.42      0.01         0.01
  YS02001884YS02001887        0.44      0.44      0.45      0.01         0.01
  YS02001887YS02001890        0.46      0.46      0.47      0.03         0.01
  YS02001890YS02001895        0.40      0.40      0.48      0.01         0.01
  YS02001895YS02001898        0.39      0.39      0.40      0.01         0.01
  YS02001898YS02001901        0.40      0.40      0.44      0.01         0.01
  YS02001901YS02001904        0.43      0.43      0.44      0.01         0.01
  YS02001904YS02001907        0.43      0.43      0.61      0.01         0.01
  YS02001907YS02006553        0.71      0.71      0.77      0.01         0.01
  YS02001910YS02001907        0.48      0.48      0.60      0.01         0.01
  YS02001915YS02001910        0.41      0.41      0.48      0.01         0.01
  YS02001918YS02001915        0.32      0.32      0.41      0.01         0.01
  YS02001920YS02001918        0.32      0.32      0.33      0.01         0.01
  YS02001923YS02001920        0.27      0.27      0.33      0.01         0.01
  YS02001926YS02001923        0.01      0.01      0.02      0.01         0.01
  YS02001929YS02001926        0.01      0.01      0.02      0.01         0.01
  YS02006553YS02006556        0.54      0.54      0.61      0.01         0.01
  YS02006556YS02006558        0.57      0.57      0.62      0.01         0.01
  YS02006558YS02006561        0.43      0.54      0.43      0.67         0.43
  YS02006561YS02001783        0.35      0.35      0.56      0.01         0.01
  YS02163301YS02001633        6.40      6.40      6.41      0.01         0.01
  YS02163601YS02164001        6.40      6.40      6.41      0.03         0.01
  YS02164001YS02001641        6.40      6.40      6.40      0.62         0.61
  
  
  ***************
  Pumping Summary
  ***************
  
  ---------------------------------------------------------------------------------------------------------
                                                  Min       Avg       Max     Total     Power    % Time Off
                        Percent   Number of      Flow      Flow      Flow    Volume     Usage    Pump Curve
  Pump                 Utilized   Start-Ups       LPS       LPS       LPS  10^6 ltr     Kw-hr    Low   High
  ---------------------------------------------------------------------------------------------------------
  CC-R1                    1.06           1      0.00    683.00    683.00     0.208      3.51    0.0  100.0
  CC-R2                    1.06           1      0.00    683.00    683.00     0.208      3.51    0.0  100.0
  CC-S1                   25.11           2      0.00    200.00    200.00     1.447      5.92    0.0   59.8
  CC-S2                   25.11           2      0.00    200.00    200.00     1.447      5.92    0.0   59.8
  JK-R1                    0.97           2      0.00    347.46   1000.00     0.078      0.47    0.0    0.0
  JK-R2                    0.97           2      0.00    347.46   1000.00     0.078      0.47    0.0    0.0
  JK-S                     0.97           2      0.00    104.30    300.00     0.023      0.44    0.0    0.0
  XR-1                   100.00           1      0.00     95.00     95.00     2.736     68.18    0.0    0.0
  XR-2                   100.00           1      0.00     95.00     95.00     2.736     68.18    0.0    0.0
  XR-3                   100.00           1      0.00     95.00     95.00     2.736     68.18    0.0    0.0
  XR-4                   100.00           1      0.00     95.00     95.00     2.736     68.18    0.0    0.0
  

  Analysis begun on:  Wed Nov  5 16:30:11 2025
  Analysis ended on:  Wed Nov  5 16:30:14 2025
  Total elapsed time: 00:00:03