
  EPA STORM WATER MANAGEMENT MODEL - VERSION 5.2 (Build 5.2.4)
  PYSWMM TOOLKIT API - VERSION v1.0 (2023-11-27)
  ------------------------------------------------------------

  WARNING 04: minimum elevation drop used for Conduit WS02004404WS02004405
  WARNING 03: negative offset ignored for Link YS02001904YS02001907
  
  ****************
  Analysis Options
  ****************
  Flow Units ............... LPS
  Process Models:
    Rainfall/Runoff ........ YES
    RDII ................... NO
    Snowmelt ............... NO
    Groundwater ............ NO
    Flow Routing ........... YES
    Ponding Allowed ........ NO
    Water Quality .......... NO
  Infiltration Method ...... HORTON
  Flow Routing Method ...... DYNWAVE
  Surcharge Method ......... EXTRAN
  Starting Date ............ 08/28/2015 08:00:00
  Ending Date .............. 08/28/2015 16:00:00
  Antecedent Dry Days ...... 8.0
  Report Time Step ......... 00:01:00
  Wet Time Step ............ 00:01:00
  Dry Time Step ............ 00:01:00
  Routing Time Step ........ 30.00 sec
  Variable Time Step ....... YES
  Maximum Trials ........... 8
  Number of Threads ........ 4
  Head Tolerance ........... 0.001500 m
  
  
  **************************        Volume         Depth
  Runoff Quantity Continuity     hectare-m            mm
  **************************     ---------       -------
  Initial LID Storage ......         0.049         1.488
  Total Precipitation ......         1.883        56.764
  Evaporation Loss .........         0.000         0.000
  Infiltration Loss ........         0.077         2.307
  Surface Runoff ...........         1.384        41.727
  Final Storage ............         0.473        14.251
  Continuity Error (%) .....        -0.056
  
  
  **************************        Volume        Volume
  Flow Routing Continuity        hectare-m      10^6 ltr
  **************************     ---------     ---------
  Dry Weather Inflow .......         0.602         6.020
  Wet Weather Inflow .......         1.384        13.844
  Groundwater Inflow .......         0.000         0.000
  RDII Inflow ..............         0.000         0.000
  External Inflow ..........         0.105         1.045
  External Outflow .........         1.537        15.370
  Flooding Loss ............         0.538         5.384
  Evaporation Loss .........         0.000         0.000
  Exfiltration Loss ........         0.000         0.000
  Initial Stored Volume ....         0.303         3.031
  Final Stored Volume ......         0.779         7.789
  Continuity Error (%) .....       -19.228
  
  
  *************************
  Highest Continuity Errors
  *************************
  Node YS02001774 (23.17%)
  Node YS02001884 (4.81%)
  Node YS02001583 (-4.10%)
  Node YS02001754 (3.65%)
  Node YS02001767 (3.21%)
  
  
  ***************************
  Time-Step Critical Elements
  ***************************
  Link WS02006238WS02006235 (33.44%)
  Link WS02001212WS02001213 (15.93%)
  Link WS02006252WS02006251 (15.81%)
  Link WS02006235WS02006234 (9.70%)
  Link WS02003066WSF200 (9.40%)
  
  
  ********************************
  Highest Flow Instability Indexes
  ********************************
  Link WS02006113WS02006111 (44)
  Link WS02006256WS02006235 (31)
  Link WS02006252WS02006251 (22)
  Link WS02006238WS02006235 (19)
  Link YS02001791YS02001793 (18)
  
  
  *********************************
  Most Frequent Nonconverging Nodes
  *********************************
  Node CC-1 (12.65%)
  Node CC-2 (12.65%)
  Node JK-1 (12.65%)
  Node JK-2 (12.65%)
  Node WSC (12.65%)
  
  
  *************************
  Routing Time Step Summary
  *************************
  Minimum Time Step           :     0.01 sec
  Average Time Step           :     2.89 sec
  Maximum Time Step           :     6.46 sec
  % of Time in Steady State   :     0.00
  Average Iterations per Step :     3.38
  % of Steps Not Converging   :    12.65
  Time Step Frequencies       :
     30.000 - 13.228 sec      :     0.00 %
     13.228 -  5.833 sec      :    16.95 %
      5.833 -  2.572 sec      :    33.86 %
      2.572 -  1.134 sec      :    28.22 %
      1.134 -  0.500 sec      :    20.97 %
  
  
  ***************************
  Subcatchment Runoff Summary
  ***************************
  
  ------------------------------------------------------------------------------------------------------------------------------
                            Total      Total      Total      Total     Imperv       Perv      Total       Total     Peak  Runoff
                           Precip      Runon       Evap      Infil     Runoff     Runoff     Runoff      Runoff   Runoff   Coeff
  Subcatchment                 mm         mm         mm         mm         mm         mm         mm    10^6 ltr      LPS
  ------------------------------------------------------------------------------------------------------------------------------
  sub60                     56.76       0.00       0.00       1.35      37.63       3.91      41.53        0.55   428.80   0.732
  sub61                     56.76       0.00       0.00       2.08      37.59       5.81      43.40        0.80   626.77   0.765
  sub62                     56.76       0.00       0.00       0.92      40.08       2.65      42.73        1.17   857.79   0.753
  sub63                     56.76       0.00       0.00       3.85      32.20       9.63      41.83        0.95   717.23   0.737
  sub64                     56.76       0.00       0.00       1.84      36.66       4.79      41.45        1.00   700.84   0.730
  sub65                     56.76       0.00       0.00       1.69      39.57       4.37      43.94        1.21   816.38   0.774
  sub66                     56.76       0.00       0.00       4.55      31.13       8.51      39.64        1.85  1067.47   0.698
  sub67                     56.76       0.00       0.00       0.91      41.09       2.75      43.84        0.82   660.66   0.772
  sub68                     56.76       0.00       0.00       1.60      36.29       4.46      40.74        1.12   855.84   0.718
  sub69                     56.76       0.00       0.00       1.47      38.16       5.28      43.44        1.61  1054.85   0.765
  sub70                     56.76       0.00       0.00       5.02      30.56      10.78      41.34        1.19   614.99   0.728
  sub71                     56.76       0.00       0.00       0.85      36.40       2.40      38.80        1.01   706.59   0.684
  sub72                     56.76       0.00       0.00       0.81      39.32       2.23      41.54        0.57   362.35   0.732
  

  ***********************
  LID Performance Summary
  ***********************

  --------------------------------------------------------------------------------------------------------------------
                                         Total      Evap     Infil   Surface    Drain    Initial     Final  Continuity
                                        Inflow      Loss      Loss   Outflow   Outflow   Storage   Storage       Error
  Subcatchment      LID Control             mm        mm        mm        mm        mm        mm        mm           %
  --------------------------------------------------------------------------------------------------------------------
  sub60             GreenRoof            56.76      0.00      0.00      0.00      0.00      7.05     63.92       -0.16
  sub61             GreenRoof            56.76      0.00      0.00      0.00      0.00      7.05     63.92       -0.16
  sub62             GreenRoof            56.76      0.00      0.00      0.00      0.00      7.05     63.92       -0.16
  sub63             GreenRoof            56.76      0.00      0.00      0.00      0.00      7.05     63.92       -0.16
  sub64             GreenRoof            56.76      0.00      0.00      0.00      0.00      7.05     63.92       -0.16
  sub65             GreenRoof            56.76      0.00      0.00      0.00      0.00      7.05     63.92       -0.16
  sub66             GreenRoof            56.76      0.00      0.00      0.00      0.00      7.05     63.92       -0.16
  sub67             GreenRoof            56.76      0.00      0.00      0.00      0.00      7.05     63.92       -0.16
  sub68             GreenRoof            56.76      0.00      0.00      0.00      0.00      7.05     63.92       -0.16
  sub69             GreenRoof            56.76      0.00      0.00      0.00      0.00      7.05     63.92       -0.16
  sub70             GreenRoof            56.76      0.00      0.00      0.00      0.00      7.05     63.92       -0.16
  sub71             GreenRoof            56.76      0.00      0.00      0.00      0.00      7.05     63.92       -0.16
  sub72             GreenRoof            56.76      0.00      0.00      0.00      0.00      7.05     63.92       -0.16
  
  ******************
  Node Depth Summary
  ******************
  
  ---------------------------------------------------------------------------------
                                 Average  Maximum  Maximum  Time of Max    Reported
                                   Depth    Depth      HGL   Occurrence   Max Depth
  Node                 Type       Meters   Meters   Meters  days hr:min      Meters
  ---------------------------------------------------------------------------------
  WS02001211           JUNCTION     0.76     0.79     5.63     0  02:43        0.79
  WS02001212           JUNCTION     0.46     0.50     5.56     0  02:41        0.50
  WS02001213           JUNCTION     0.68     0.75     5.51     0  02:41        0.75
  WS02003059           JUNCTION     0.73     0.80     5.48     0  02:40        0.80
  WS02003060           JUNCTION     0.38     0.50     5.43     0  02:40        0.50
  WS02003066           JUNCTION     0.16     0.29     5.84     0  02:39        0.29
  WS02003067           JUNCTION     0.43     0.69     6.01     0  02:39        0.69
  WS02003069           JUNCTION     0.42     0.56     5.15     0  02:40        0.56
  WS02003072           JUNCTION     0.49     0.62     4.99     0  02:41        0.62
  WS02003073           JUNCTION     0.29     0.38     4.45     0  02:42        0.38
  WS02004138           JUNCTION     0.19     0.20     7.45     0  00:00        0.19
  WS02004139           JUNCTION     0.71     0.73     5.64     0  02:43        0.73
  WS02004401           JUNCTION     0.51     0.84     6.84     0  02:36        0.83
  WS02004402           JUNCTION     0.55     0.86     6.82     0  02:36        0.86
  WS02004403           JUNCTION     0.57     0.88     6.81     0  02:36        0.88
  WS02004404           JUNCTION     0.65     0.95     6.80     0  02:37        0.95
  WS02004405           JUNCTION     0.65     0.94     6.79     0  02:37        0.94
  WS02004406           JUNCTION     0.66     0.95     6.78     0  02:37        0.95
  WS02004407           JUNCTION     0.14     0.29     6.60     0  02:37        0.29
  WS02004409           JUNCTION     0.31     0.64     6.41     0  02:38        0.64
  WS02004410           JUNCTION     0.33     0.65     6.37     0  02:38        0.65
  WS02004411           JUNCTION     0.36     0.66     6.34     0  02:38        0.66
  WS02004412           JUNCTION     0.38     0.67     6.31     0  02:39        0.67
  WS02004413           JUNCTION     0.54     0.84     6.31     0  02:39        0.84
  WS02006109           JUNCTION     0.57     1.05     7.67     0  02:31        0.97
  WS02006110           JUNCTION     0.58     1.08     7.66     0  02:31        0.92
  WS02006111           JUNCTION     0.15     0.29     6.99     0  02:33        0.29
  WS02006112           JUNCTION     0.66     1.04     6.92     0  02:35        1.02
  WS02006113           JUNCTION     0.22     0.46     7.35     0  02:33        0.45
  WS02006115           JUNCTION     0.40     0.73     6.87     0  02:36        0.73
  WS02006116           JUNCTION     0.48     0.81     6.85     0  02:36        0.81
  WS02006228           JUNCTION     0.55     1.10     7.75     0  02:31        1.02
  WS02006229           JUNCTION     0.52     1.12     7.82     0  02:31        1.01
  WS02006230           JUNCTION     0.51     1.27     8.02     0  02:31        1.11
  WS02006231           JUNCTION     0.32     1.19     8.31     0  02:31        0.86
  WS02006232           JUNCTION     0.44     1.38     8.41     0  02:31        1.06
  WS02006234           JUNCTION     0.35     1.21     8.37     0  02:31        1.09
  WS02006235           JUNCTION     0.39     1.24     8.40     0  02:31        1.17
  WS02006238           JUNCTION     0.41     1.27     8.41     0  02:31        1.20
  WS02006239           JUNCTION     0.39     1.25     8.46     0  02:31        1.18
  WS02006240           JUNCTION     0.36     1.21     8.51     0  02:31        1.14
  WS02006242           JUNCTION     0.43     1.28     8.55     0  02:31        1.22
  WS02006243           JUNCTION     0.35     1.18     8.60     0  02:31        1.12
  WS02006245           JUNCTION     0.36     1.15     8.63     0  02:31        1.11
  WS02006247           JUNCTION     0.38     1.16     8.66     0  02:31        1.13
  WS02006248           JUNCTION     0.35     1.09     8.68     0  02:31        1.08
  WS02006249           JUNCTION     0.38     1.09     8.69     0  02:31        1.09
  WS02006251           JUNCTION     0.37     1.20     8.87     0  02:31        1.12
  WS02006252           JUNCTION     0.28     1.50     9.74     0  00:00        0.94
  WS02006256           JUNCTION     0.63     2.35     9.28     0  00:00        2.35
  WSF200               JUNCTION     0.13     0.29     5.52     0  02:39        0.29
  YS02001580           JUNCTION     0.08     1.05     9.59     0  02:16        0.99
  YS02001583           JUNCTION     0.11     1.13     9.63     0  02:16        0.91
  YS02001586           JUNCTION     0.18     1.13     9.30     0  02:16        1.13
  YS02001590           JUNCTION     0.26     1.40     9.26     0  02:17        1.40
  YS02001593           JUNCTION     0.20     1.39     9.25     0  02:17        1.39
  YS02001596           JUNCTION     0.41     1.73     9.15     0  02:17        1.73
  YS02001600           JUNCTION     0.64     1.87     9.00     0  02:17        1.87
  YS02001601           JUNCTION     0.89     2.06     8.90     0  02:16        2.06
  YS02001602           JUNCTION     0.81     1.87     8.77     0  02:18        1.87
  YS02001605           JUNCTION     0.78     1.77     8.68     0  02:30        1.77
  YS02001607           JUNCTION     0.79     1.65     8.49     0  02:37        1.64
  YS02001610           JUNCTION     0.83     1.68     8.48     0  02:19        1.68
  YS02001613           JUNCTION     0.79     1.66     8.50     0  02:24        1.66
  YS02001616           JUNCTION     0.72     1.61     8.52     0  02:24        1.61
  YS02001619           JUNCTION     0.71     1.61     8.54     0  02:24        1.61
  YS02001622           JUNCTION     0.71     1.57     8.48     0  02:24        1.57
  YS02001625           JUNCTION     0.98     1.78     8.38     0  02:20        1.78
  YS02001629           JUNCTION     0.99     1.85     8.40     0  02:21        1.85
  YS02001633           JUNCTION     1.07     2.02     8.47     0  02:24        2.02
  YS02001641           JUNCTION     1.07     2.00     8.44     0  02:29        1.94
  YS02001644           JUNCTION     1.06     1.92     8.35     0  02:22        1.92
  YS02001647           JUNCTION     0.87     1.77     8.38     0  02:23        1.72
  YS02001649           JUNCTION     1.03     1.99     8.38     0  02:23        1.92
  YS02001652           JUNCTION     0.86     1.88     8.47     0  02:23        1.75
  YS02001655           JUNCTION     0.66     1.79     8.64     0  02:22        1.53
  YS02001658           JUNCTION     0.45     1.77     8.91     0  02:22        1.27
  YS02001661           JUNCTION     0.28     1.39     8.80     0  02:23        1.06
  YS02001664           JUNCTION     0.05     0.55     8.47     0  02:23        0.46
  YS02001745           JUNCTION     0.17     0.73     8.25     0  02:24        0.73
  YS02001748           JUNCTION     0.48     1.75     8.83     0  02:22        1.16
  YS02001751           JUNCTION     0.63     1.61     8.49     0  02:22        1.37
  YS02001754           JUNCTION     0.83     1.73     8.34     0  02:22        1.62
  YS02001757           JUNCTION     1.12     1.99     8.25     0  02:23        1.96
  YS02001759           JUNCTION     1.03     1.96     8.33     0  02:23        1.96
  YS02001762           JUNCTION     1.01     1.95     8.35     0  02:23        1.93
  YS02001765           JUNCTION     0.97     1.92     8.37     0  02:23        1.89
  YS02001767           JUNCTION     0.94     1.90     8.39     0  02:23        1.88
  YS02001770           JUNCTION     0.95     1.94     8.44     0  02:24        1.94
  YS02001774           JUNCTION     1.01     1.99     8.42     0  02:24        1.99
  YS02001779           JUNCTION     0.77     1.68     8.37     0  02:20        1.68
  YS02001783           JUNCTION     0.49     1.55     7.69     0  02:20        1.50
  YS02001784           JUNCTION     0.54     1.49     7.56     0  02:20        1.44
  YS02001786           JUNCTION     0.54     1.34     7.37     0  02:20        1.28
  YS02001788           JUNCTION     0.55     1.20     7.17     0  02:20        1.15
  YS02001790           JUNCTION     0.79     1.34     6.99     0  02:20        1.30
  YS02001791           JUNCTION     0.90     1.30     6.77     0  02:19        1.27
  YS02001793           JUNCTION     1.37     1.82     6.65     0  02:19        1.80
  YS02001882           JUNCTION     0.29     1.67     8.39     0  02:20        1.66
  YS02001884           JUNCTION     0.38     1.75     8.37     0  02:20        1.75
  YS02001887           JUNCTION     0.45     1.84     8.38     0  02:24        1.84
  YS02001890           JUNCTION     0.48     1.81     8.32     0  02:20        1.81
  YS02001895           JUNCTION     0.26     1.57     8.32     0  02:32        1.56
  YS02001898           JUNCTION     0.27     1.59     8.33     0  02:29        1.59
  YS02001901           JUNCTION     0.38     1.69     8.30     0  02:32        1.67
  YS02001904           JUNCTION     0.36     1.64     8.27     0  02:32        1.64
  YS02001907           JUNCTION     0.67     1.96     8.25     0  02:20        1.96
  YS02001910           JUNCTION     0.47     1.96     8.46     0  02:21        1.86
  YS02001915           JUNCTION     0.29     1.90     8.62     0  02:21        1.72
  YS02001918           JUNCTION     0.15     1.81     8.88     0  02:21        1.44
  YS02001920           JUNCTION     0.23     2.14     9.15     0  02:21        1.48
  YS02001923           JUNCTION     0.12     2.03     9.29     0  02:21        1.21
  YS02001926           JUNCTION     0.15     1.90     9.35     0  02:21        1.08
  YS02001929           JUNCTION     0.08     1.78     9.47     0  02:21        0.88
  YS02006553           JUNCTION     0.68     1.98     8.26     0  02:24        1.98
  YS02006556           JUNCTION     0.65     1.97     8.28     0  02:24        1.97
  YS02006558           JUNCTION     0.69     2.04     8.30     0  02:24        2.04
  YS02006561           JUNCTION     0.16     1.15     7.81     0  02:20        1.12
  YS02163301           JUNCTION     1.02     1.93     8.44     0  02:24        1.93
  YS02163601           JUNCTION     1.12     2.08     8.48     0  02:29        2.03
  YS02164001           JUNCTION     1.05     2.03     8.48     0  02:29        1.94
  CC-1                 OUTFALL      0.00     0.00     0.00     0  00:00        0.00
  CC-2                 OUTFALL      0.00     0.00     0.00     0  00:00        0.00
  JK-1                 OUTFALL      0.00     0.00     0.00     0  00:00        0.00
  JK-2                 OUTFALL      0.00     0.00     0.00     0  00:00        0.00
  WSC                  OUTFALL      0.29     0.38     1.05     0  02:42        0.38
  CC-storage           STORAGE      1.70     2.27     7.77     0  03:06        2.27
  JK-storage           STORAGE      4.66     5.80     6.60     0  02:09        5.80
  XR-storage           STORAGE      0.23     5.00     3.00     0  00:00        4.91
  
  
  *******************
  Node Inflow Summary
  *******************
  
  -------------------------------------------------------------------------------------------------
                                  Maximum  Maximum                  Lateral       Total        Flow
                                  Lateral    Total  Time of Max      Inflow      Inflow     Balance
                                   Inflow   Inflow   Occurrence      Volume      Volume       Error
  Node                 Type           LPS      LPS  days hr:min    10^6 ltr    10^6 ltr     Percent
  -------------------------------------------------------------------------------------------------
  WS02001211           JUNCTION      7.35   389.14     0  03:38       0.212        11.1       0.353
  WS02001212           JUNCTION      0.00   390.87     0  03:41           0        11.1       0.213
  WS02001213           JUNCTION      0.00   392.63     0  03:40           0        11.1       0.247
  WS02003059           JUNCTION      0.00   395.69     0  03:40           0          11       0.342
  WS02003060           JUNCTION     16.53   886.99     0  02:39       0.476        14.9       0.184
  WS02003066           JUNCTION      0.00   497.96     0  02:39           0        3.41       0.097
  WS02003067           JUNCTION      0.00   497.34     0  02:39           0        3.42       0.212
  WS02003069           JUNCTION      0.32   886.73     0  02:40     0.00922        14.8       0.197
  WS02003072           JUNCTION      0.00   885.89     0  02:41           0        14.8       0.244
  WS02003073           JUNCTION      1.82   887.16     0  02:41      0.0524        14.8       0.272
  WS02004138           JUNCTION      0.00   380.00     0  00:00           0        10.9       0.059
  WS02004139           JUNCTION      0.32   395.52     0  00:00     0.00924        10.9       0.411
  WS02004401           JUNCTION      0.00   526.17     0  02:36           0        3.59       0.437
  WS02004402           JUNCTION      0.00   525.49     0  02:36           0        3.58       0.427
  WS02004403           JUNCTION      0.00   522.61     0  02:36           0        3.56       0.402
  WS02004404           JUNCTION      0.16   521.81     0  02:37     0.00467        3.55       0.327
  WS02004405           JUNCTION      0.04   521.82     0  02:37      0.0011        3.54       0.465
  WS02004406           JUNCTION      0.00   520.99     0  02:37           0        3.52       0.785
  WS02004407           JUNCTION      0.00   520.39     0  02:37           0         3.5       0.127
  WS02004409           JUNCTION      0.00   519.47     0  02:37           0        3.49       0.292
  WS02004410           JUNCTION      0.00   510.75     0  02:37           0        3.48       0.357
  WS02004411           JUNCTION      0.00   507.52     0  02:38           0        3.47       0.384
  WS02004412           JUNCTION      0.00   502.97     0  02:38           0        3.46       0.440
  WS02004413           JUNCTION      0.00   499.36     0  02:38           0        3.44       0.689
  WS02006109           JUNCTION      1.23   554.62     0  02:31      0.0354        3.66       0.090
  WS02006110           JUNCTION      0.00   556.22     0  02:31           0        3.66       0.297
  WS02006111           JUNCTION      0.00   560.39     0  02:33           0        3.64       0.063
  WS02006112           JUNCTION      0.00   540.98     0  02:33           0        3.64       0.649
  WS02006113           JUNCTION      0.00   563.17     0  02:31           0        3.64       0.116
  WS02006115           JUNCTION      0.00   540.23     0  02:35           0        3.61       0.352
  WS02006116           JUNCTION      0.00   534.82     0  02:36           0         3.6       0.291
  WS02006228           JUNCTION      0.00   549.92     0  02:31           0        3.62       0.042
  WS02006229           JUNCTION      0.00   550.07     0  02:31           0        3.63       0.254
  WS02006230           JUNCTION     10.28   582.71     0  02:31       0.296        3.64       0.188
  WS02006231           JUNCTION      0.00   568.98     0  02:30           0        3.34      -0.026
  WS02006232           JUNCTION      0.00   568.05     0  02:30           0        3.36       0.548
  WS02006234           JUNCTION      0.00   564.34     0  02:30           0        3.36      -0.201
  WS02006235           JUNCTION      0.00   557.73     0  02:30           0        3.38       0.408
  WS02006238           JUNCTION      0.00   424.01     0  02:36           0        3.28      -0.707
  WS02006239           JUNCTION      0.00   422.03     0  02:36           0        3.26      -0.514
  WS02006240           JUNCTION      0.00   417.13     0  02:36           0        3.25      -0.117
  WS02006242           JUNCTION      0.00   415.49     0  02:36           0        3.25       0.053
  WS02006243           JUNCTION      0.00   414.60     0  02:36           0        3.24      -0.246
  WS02006245           JUNCTION      0.00   414.69     0  02:36           0        3.27       0.879
  WS02006247           JUNCTION      0.00   415.96     0  02:36           0        3.27       0.002
  WS02006248           JUNCTION      0.00   418.24     0  02:36           0        3.27       0.037
  WS02006249           JUNCTION      0.00   486.52     0  02:16           0        3.32       0.853
  WS02006251           JUNCTION      0.08   405.45     0  02:15     0.00222        3.32      -0.026
  WS02006252           JUNCTION      0.00   400.00     0  00:00           0        3.31      -0.132
  WS02006256           JUNCTION      0.00   300.00     0  00:00           0       0.115      -1.583
  WSF200               JUNCTION      0.00   498.25     0  02:39           0        3.41       0.083
  YS02001580           JUNCTION      0.00    79.23     0  02:16           0     0.00386      -2.531
  YS02001583           JUNCTION      0.00   147.93     0  02:16           0       0.015      -3.942
  YS02001586           JUNCTION    614.99   614.99     0  02:26        1.19        1.21       0.076
  YS02001590           JUNCTION      0.00   317.88     0  02:30           0        1.03       0.036
  YS02001593           JUNCTION      0.00   318.26     0  02:32           0        1.03       0.054
  YS02001596           JUNCTION      0.00   318.02     0  02:35           0        1.04       0.054
  YS02001600           JUNCTION      0.00   318.01     0  02:33           0        1.05       0.538
  YS02001601           JUNCTION   1054.85  1372.39     0  02:25        1.61        2.66       0.339
  YS02001602           JUNCTION      0.00   502.30     0  02:16           0        1.86       0.505
  YS02001605           JUNCTION      0.00   502.05     0  02:16           0        1.77       0.803
  YS02001607           JUNCTION      0.00   501.68     0  02:16           0        1.77       1.037
  YS02001610           JUNCTION      0.00   525.46     0  02:26           0        1.83       1.055
  YS02001613           JUNCTION      0.00   500.78     0  02:16           0        1.58       1.267
  YS02001616           JUNCTION      0.00   500.30     0  02:15           0         1.6       1.062
  YS02001619           JUNCTION   1067.47  1067.47     0  02:26        1.85         3.4       0.493
  YS02001622           JUNCTION      0.00   932.67     0  02:19           0        3.35       0.695
  YS02001625           JUNCTION      0.00  1146.02     0  02:26           0        3.42       1.284
  YS02001629           JUNCTION      0.00   931.66     0  02:19           0        2.82       0.666
  YS02001633           JUNCTION    816.58  1374.31     0  02:19        1.22        3.91       0.811
  YS02001641           JUNCTION      0.00  1370.58     0  02:19           0        3.76       0.544
  YS02001644           JUNCTION    700.88  1751.03     0  02:19       0.997        4.74       0.531
  YS02001647           JUNCTION      0.00  1750.75     0  02:19           0        4.57       0.584
  YS02001649           JUNCTION      0.00  1942.86     0  02:19           0        5.49       0.670
  YS02001652           JUNCTION      0.00   735.38     0  02:24           0       0.989       2.238
  YS02001655           JUNCTION      0.15   736.03     0  02:24     0.00443           1       1.863
  YS02001658           JUNCTION      0.00   734.91     0  02:24           0           1       0.960
  YS02001661           JUNCTION      0.00   819.95     0  02:25           0       0.974       0.199
  YS02001664           JUNCTION    717.23   717.23     0  02:25        0.95        0.95      -0.035
  YS02001745           JUNCTION    428.80   428.80     0  02:25       0.546       0.585       0.384
  YS02001748           JUNCTION      0.04   506.86     0  02:22      0.0013       0.613       1.267
  YS02001751           JUNCTION      0.01   433.58     0  02:24    0.000317       0.602       3.019
  YS02001754           JUNCTION      0.26   433.67     0  02:24     0.00749       0.602       3.784
  YS02001757           JUNCTION      0.00  3167.61     0  02:24           0        7.77       1.195
  YS02001759           JUNCTION    626.81  1268.27     0  02:24       0.798        1.82       1.241
  YS02001762           JUNCTION      0.00   694.86     0  02:23           0        1.04       1.991
  YS02001765           JUNCTION      0.00   695.27     0  02:23           0        1.06       2.293
  YS02001767           JUNCTION      0.54   695.46     0  02:23      0.0154         1.1       3.318
  YS02001770           JUNCTION    857.94   857.94     0  02:25        1.18         1.2       2.575
  YS02001774           JUNCTION      0.00   334.13     0  02:20           0       0.107      30.154
  YS02001779           JUNCTION      0.01   338.56     0  02:20    0.000144      0.0651      25.088
  YS02001783           JUNCTION      0.00   978.20     0  02:24           0        2.88       0.242
  YS02001784           JUNCTION      1.06   980.00     0  02:24      0.0305        2.91       0.361
  YS02001786           JUNCTION      0.06   980.02     0  02:24     0.00162         2.9       0.466
  YS02001788           JUNCTION      0.07   979.99     0  02:24     0.00204        2.89       0.472
  YS02001790           JUNCTION      0.15   980.26     0  02:24     0.00446        2.88       0.566
  YS02001791           JUNCTION      0.00   980.28     0  02:24           0        2.86       0.519
  YS02001793           JUNCTION      0.00   980.66     0  02:24           0        2.85       0.565
  YS02001882           JUNCTION      0.00    39.28     0  02:18           0      0.0125       4.477
  YS02001884           JUNCTION      0.00    82.08     0  02:18           0      0.0487       5.053
  YS02001887           JUNCTION    661.11   661.65     0  02:25       0.828       0.862       0.505
  YS02001890           JUNCTION      0.00   661.15     0  02:25           0       0.821       0.618
  YS02001895           JUNCTION      0.00   515.45     0  02:27           0        0.79       0.177
  YS02001898           JUNCTION      0.00   515.45     0  02:27           0       0.788       0.024
  YS02001901           JUNCTION      0.00   515.45     0  02:27           0       0.791       0.375
  YS02001904           JUNCTION      0.00   515.46     0  02:27           0       0.795       0.350
  YS02001907           JUNCTION      0.00  1643.26     0  02:25           0        2.46       0.711
  YS02001910           JUNCTION      0.00  1130.26     0  02:25           0        1.67       0.425
  YS02001915           JUNCTION    706.61  1130.38     0  02:25        1.02        1.71       0.089
  YS02001918           JUNCTION      0.00   441.19     0  02:21           0       0.727       0.002
  YS02001920           JUNCTION      2.87   441.09     0  02:21      0.0827        0.71       0.120
  YS02001923           JUNCTION      0.04   442.67     0  02:21     0.00109        0.61      -0.114
  YS02001926           JUNCTION      0.05   647.56     0  02:20      0.0015       0.588      -0.171
  YS02001929           JUNCTION    362.35   394.00     0  02:20       0.571       0.574      -0.103
  YS02006553           JUNCTION      0.00   681.04     0  02:35           0        1.78       0.674
  YS02006556           JUNCTION      0.00   680.50     0  02:35           0        1.79       0.455
  YS02006558           JUNCTION    856.72   979.49     0  02:24        1.15        2.91       0.118
  YS02006561           JUNCTION      0.00   978.34     0  02:24           0        2.88      -0.011
  YS02163301           JUNCTION      0.00   931.09     0  02:19           0        2.81       0.856
  YS02163601           JUNCTION      0.11  1373.24     0  02:19     0.00317         3.8       0.785
  YS02164001           JUNCTION      0.00  1373.25     0  02:19           0        3.77       0.496
  CC-1                 OUTFALL       0.00   683.00     0  00:00           0       0.208       0.000
  CC-2                 OUTFALL       0.00   683.00     0  00:00           0       0.208       0.000
  JK-1                 OUTFALL       0.00  1000.00     0  00:00           0      0.0791       0.000
  JK-2                 OUTFALL       0.00  1000.00     0  00:00           0      0.0791       0.000
  WSC                  OUTFALL       0.00   886.31     0  02:42           0        14.8       0.000
  CC-storage           STORAGE       0.00  3167.88     0  02:23           0        9.72       0.410
  JK-storage           STORAGE       0.00   980.91     0  02:24           0        2.98       0.539
  XR-storage           STORAGE     200.00   200.00     0  00:00        5.76        6.36     -41.886
  
  
  **********************
  Node Surcharge Summary
  **********************
  
  Surcharging occurs when water rises above the top of the highest conduit.
  ---------------------------------------------------------------------
                                               Max. Height   Min. Depth
                                   Hours       Above Crown    Below Rim
  Node                 Type      Surcharged         Meters       Meters
  ---------------------------------------------------------------------
  WS02006109           JUNCTION        1.16          0.234        1.586
  WS02006110           JUNCTION        0.06          0.168        1.682
  WS02006112           JUNCTION        0.04          0.035        1.645
  WS02006228           JUNCTION        1.14          0.267        1.933
  WS02006229           JUNCTION        1.19          0.323        2.127
  WS02006230           JUNCTION        0.06          0.191        1.379
  WS02006231           JUNCTION        0.08          0.480        1.050
  WS02006232           JUNCTION        1.30          0.675        0.805
  WS02006234           JUNCTION        0.11          0.493        0.747
  WS02006235           JUNCTION        1.18          0.528        0.762
  WS02006238           JUNCTION        1.24          0.548        0.882
  WS02006239           JUNCTION        1.19          0.509        0.781
  WS02006240           JUNCTION        1.20          0.502        0.888
  WS02006242           JUNCTION        1.37          0.551        0.269
  WS02006243           JUNCTION        1.23          0.466        0.304
  WS02006245           JUNCTION        1.23          0.438        0.412
  WS02006247           JUNCTION        1.26          0.446        0.314
  WS02006248           JUNCTION        1.22          0.370        0.010
  WS02006249           JUNCTION        1.26          0.390        0.000
  WS02006251           JUNCTION        0.08          0.167        1.013
  WS02006252           JUNCTION        2.18          1.100        0.000
  WS02006256           JUNCTION        4.47          2.050        0.000
  YS02001580           JUNCTION        0.41          0.450        0.000
  YS02001583           JUNCTION        0.42          0.491        0.009
  YS02001586           JUNCTION        0.55          0.510        0.000
  YS02001590           JUNCTION        0.63          0.750        0.000
  YS02001593           JUNCTION        0.64          0.767        0.073
  YS02001596           JUNCTION        0.78          1.003        0.067
  YS02001600           JUNCTION        1.11          1.190        0.000
  YS02001601           JUNCTION        6.05          1.440        0.000
  YS02001602           JUNCTION        5.99          1.270        0.000
  YS02001605           JUNCTION        5.95          1.175        0.005
  YS02001607           JUNCTION        0.81          0.647        0.033
  YS02001610           JUNCTION        0.94          0.680        0.000
  YS02001613           JUNCTION        0.81          0.659        0.041
  YS02001616           JUNCTION        0.74          0.610        0.000
  YS02001619           JUNCTION        0.71          0.610        0.000
  YS02001622           JUNCTION        0.74          0.571        0.049
  YS02001625           JUNCTION        5.52          0.780        0.000
  YS02001629           JUNCTION        0.66          0.470        0.000
  YS02001633           JUNCTION        5.78          1.000        0.060
  YS02001641           JUNCTION        5.75          1.001        0.099
  YS02001644           JUNCTION        5.74          0.920        0.000
  YS02001647           JUNCTION        5.35          0.771        0.129
  YS02001649           JUNCTION        5.68          0.995        0.055
  YS02001652           JUNCTION        5.19          0.847        0.283
  YS02001655           JUNCTION        0.43          0.792        0.408
  YS02001658           JUNCTION        0.13          0.770        0.530
  YS02001661           JUNCTION        0.01          0.323        1.067
  YS02001748           JUNCTION        0.09          0.674        0.516
  YS02001751           JUNCTION        0.22          0.614        0.586
  YS02001754           JUNCTION        4.84          0.679        0.471
  YS02001757           JUNCTION        5.67          0.991        0.219
  YS02001759           JUNCTION        5.67          0.962        0.248
  YS02001762           JUNCTION        5.66          0.954        0.196
  YS02001765           JUNCTION        5.66          0.920        0.180
  YS02001767           JUNCTION        5.66          0.899        0.131
  YS02001770           JUNCTION        5.66          0.912        0.008
  YS02001774           JUNCTION        5.66          0.994        0.056
  YS02001779           JUNCTION        1.97          0.680        0.000
  YS02001783           JUNCTION        0.59          0.747        0.853
  YS02001784           JUNCTION        0.61          0.695        0.795
  YS02001786           JUNCTION        0.59          0.537        0.893
  YS02001788           JUNCTION        0.58          0.396        1.084
  YS02001790           JUNCTION        5.85          0.543        0.614
  YS02001791           JUNCTION        5.86          0.502        1.418
  YS02001793           JUNCTION        5.89          0.820        1.780
  YS02001882           JUNCTION        0.36          0.671        0.159
  YS02001884           JUNCTION        0.37          0.693        0.177
  YS02001887           JUNCTION        0.39          0.794        0.156
  YS02001890           JUNCTION        0.40          0.760        0.000
  YS02001895           JUNCTION        0.35          0.571        0.179
  YS02001898           JUNCTION        0.34          0.564        0.176
  YS02001901           JUNCTION        0.38          0.686        0.184
  YS02001904           JUNCTION        0.38          0.645        0.205
  YS02001907           JUNCTION        0.58          0.950        0.000
  YS02001910           JUNCTION        0.43          0.956        0.144
  YS02001915           JUNCTION        0.35          0.903        0.097
  YS02001918           JUNCTION        0.28          0.810        0.000
  YS02001920           JUNCTION        0.29          1.140        0.000
  YS02001923           JUNCTION        0.02          0.820        0.000
  YS02001926           JUNCTION        0.03          0.900        0.000
  YS02001929           JUNCTION        0.01          0.780        0.000
  YS02006553           JUNCTION        0.59          0.981        0.209
  YS02006556           JUNCTION        0.51          0.931        0.419
  YS02006558           JUNCTION        0.49          0.938        0.462
  YS02006561           JUNCTION        0.31          0.347        0.803
  YS02163301           JUNCTION        5.78          0.927        0.103
  YS02163601           JUNCTION        5.79          1.080        0.000
  YS02164001           JUNCTION        5.76          1.026        0.074
  
  
  *********************
  Node Flooding Summary
  *********************
  
  Flooding refers to all water that overflows a node, whether it ponds or not.
  --------------------------------------------------------------------------
                                                             Total   Maximum
                                 Maximum   Time of Max       Flood    Ponded
                        Hours       Rate    Occurrence      Volume     Depth
  Node                 Flooded       LPS   days hr:min    10^6 ltr    Meters
  --------------------------------------------------------------------------
  WS02006249              0.08     82.59      0  02:31       0.019     0.000
  WS02006252              0.01    245.63      0  00:00       0.001     0.000
  WS02006256              0.10    293.19      0  00:00       0.037     0.000
  YS02001580              0.01     34.39      0  02:16       0.000     0.000
  YS02001586              0.31    297.26      0  02:26       0.165     0.000
  YS02001590              0.01      2.38      0  02:17       0.000     0.000
  YS02001600              0.01      3.28      0  02:17       0.000     0.000
  YS02001601              0.48    974.41      0  02:25       0.797     0.000
  YS02001602              0.43     61.97      0  02:32       0.083     0.000
  YS02001610              0.34    525.46      0  02:26       0.330     0.000
  YS02001616              0.01      0.60      0  02:24       0.000     0.000
  YS02001619              0.01      0.48      0  02:24       0.000     0.000
  YS02001625              0.34   1145.66      0  02:26       0.653     0.000
  YS02001629              0.07    139.05      0  02:24       0.021     0.000
  YS02001644              0.11    582.48      0  02:25       0.139     0.000
  YS02001779              0.09    259.76      0  02:20       0.041     0.000
  YS02001890              0.11    149.56      0  02:25       0.027     0.000
  YS02001907              0.22   1512.36      0  02:25       0.668     0.000
  YS02001918              0.01    132.64      0  02:21       0.001     0.000
  YS02001920              0.01     20.53      0  02:21       0.000     0.000
  YS02001923              0.01     56.54      0  02:21       0.000     0.000
  YS02001926              0.01    148.38      0  02:21       0.001     0.000
  YS02001929              0.01    180.37      0  02:21       0.001     0.000
  YS02163601              0.01      3.56      0  02:29       0.000     0.000
  JK-storage              5.84    980.78      0  02:24       2.400     0.000
  
  
  **********************
  Storage Volume Summary
  **********************
  
  ------------------------------------------------------------------------------------------------
                         Average    Avg   Evap  Exfil     Maximum    Max    Time of Max    Maximum
                          Volume   Pcnt   Pcnt   Pcnt      Volume   Pcnt     Occurrence    Outflow
  Storage Unit           1000 m³   Full   Loss   Loss     1000 m³   Full    days hr:min        LPS
  ------------------------------------------------------------------------------------------------
  CC-storage               4.731   73.8    0.0    0.0       6.335   98.8       0  03:06    1783.53
  JK-storage               0.234   80.4    0.0    0.0       0.291  100.0       0  02:09    2300.00
  XR-storage               0.028    1.9    0.0    0.0       0.600   41.7       0  00:00     380.00
  
  
  ***********************
  Outfall Loading Summary
  ***********************
  
  -----------------------------------------------------------
                         Flow       Avg       Max       Total
                         Freq      Flow      Flow      Volume
  Outfall Node           Pcnt       LPS       LPS    10^6 ltr
  -----------------------------------------------------------
  CC-1                   1.02    683.00    683.00       0.208
  CC-2                   1.02    683.00    683.00       0.208
  JK-1                   0.95    347.46   1000.00       0.079
  JK-2                   0.95    347.46   1000.00       0.079
  WSC                   99.94    546.24    886.31      14.795
  -----------------------------------------------------------
  System                20.78   2607.17   3366.35      15.370
  
  
  ********************
  Link Flow Summary
  ********************
  
  -----------------------------------------------------------------------------
                                 Maximum  Time of Max   Maximum    Max/    Max/
                                  |Flow|   Occurrence   |Veloc|    Full    Full
  Link                 Type          LPS  days hr:min     m/sec    Flow   Depth
  -----------------------------------------------------------------------------
  1                    CONDUIT    886.31     0  02:42      3.22    0.31    0.38
  WS02001211WS02001212 CONDUIT    390.87     0  03:41      0.78    0.30    0.64
  WS02001212WS02001213 CONDUIT    392.63     0  03:40      1.32    0.61    0.46
  WS02001213WS02003059 CONDUIT    395.69     0  03:40      0.85    0.65    0.76
  WS02003059WS02003060 CONDUIT    399.95     0  03:40      0.95    0.26    0.65
  WS02003060WS02003069 CONDUIT    886.41     0  02:40      1.84    0.35    0.44
  WS02003066WSF200     CONDUIT    498.25     0  02:39      2.73    0.08    0.22
  WS02003067WS02003066 CONDUIT    497.96     0  02:39      1.16    0.16    0.41
  WS02003069WS02003072 CONDUIT    885.89     0  02:41      1.59    0.43    0.49
  WS02003072WS02003073 CONDUIT    885.34     0  02:41      1.69    1.91    0.47
  WS02004138WS02004139 CONDUIT    395.20     0  00:00      3.65    0.08    0.44
  WS02004139WS02001211 CONDUIT    381.80     0  03:38      0.91    0.48    0.59
  WS02004401WS02004402 CONDUIT    525.49     0  02:36      0.99    0.63    0.85
  WS02004402WS02004403 CONDUIT    522.61     0  02:36      0.99    0.75    0.87
  WS02004403WS02004404 CONDUIT    521.65     0  02:37      0.93    0.38    0.92
  WS02004404WS02004405 CONDUIT    521.79     0  02:37      1.10    5.11    0.95
  WS02004405WS02004406 CONDUIT    520.99     0  02:37      1.03    1.03    0.95
  WS02004406WS02004407 CONDUIT    520.39     0  02:37      1.02    0.23    0.62
  WS02004407WS02004409 CONDUIT    519.47     0  02:37      1.47    0.18    0.46
  WS02004409WS02004410 CONDUIT    510.75     0  02:37      0.97    0.66    0.64
  WS02004410WS02004411 CONDUIT    507.52     0  02:38      0.93    0.69    0.66
  WS02004411WS02004412 CONDUIT    502.97     0  02:38      0.90    0.71    0.67
  WS02004412WS02004413 CONDUIT    499.36     0  02:38      0.79    0.33    0.76
  WS02004413WS02003067 CONDUIT    497.34     0  02:39      1.06    0.21    0.57
  WS02006109WS02006110 CONDUIT    556.22     0  02:31      1.11    1.07    1.00
  WS02006110WS02006113 CONDUIT    563.17     0  02:31      1.36    0.51    0.79
  WS02006111WS02006112 CONDUIT    540.98     0  02:33      1.83    0.26    0.67
  WS02006112WS02006115 CONDUIT    540.23     0  02:35      0.78    0.32    0.86
  WS02006113WS02006111 CONDUIT    560.39     0  02:33      2.46    0.67    0.46
  WS02006115WS02006116 CONDUIT    534.82     0  02:36      0.98    0.69    0.74
  WS02006116WS02004401 CONDUIT    526.17     0  02:36      1.00    0.73    0.82
  WS02006228WS02006109 CONDUIT    553.39     0  02:31      1.10    2.42    1.00
  WS02006229WS02006228 CONDUIT    549.92     0  02:31      1.13    1.82    1.00
  WS02006230WS02006229 CONDUIT    550.07     0  02:31      1.43   12.24    1.00
  WS02006231WS02006230 CONDUIT    572.43     0  02:31      1.54    8.68    1.00
  WS02006232WS02006231 CONDUIT    568.98     0  02:30      1.48    1.19    1.00
  WS02006234WS02006232 CONDUIT    568.05     0  02:30      1.48    1.15    1.00
  WS02006235WS02006234 CONDUIT    564.34     0  02:30      1.47    5.95    1.00
  WS02006238WS02006235 CONDUIT    424.98     0  02:36      1.48    0.95    1.00
  WS02006239WS02006238 CONDUIT    424.01     0  02:36      1.21    1.36    1.00
  WS02006240WS02006239 CONDUIT    422.03     0  02:36      1.30    1.33    1.00
  WS02006242WS02006240 CONDUIT    417.13     0  02:36      1.17    1.66    1.00
  WS02006243WS02006242 CONDUIT    415.49     0  02:36      1.43    0.89    1.00
  WS02006245WS02006243 CONDUIT    414.60     0  02:36      1.45    1.23    1.00
  WS02006247WS02006245 CONDUIT    414.69     0  02:36      1.43    3.29    1.00
  WS02006248WS02006247 CONDUIT    415.96     0  02:36      1.45    0.91    1.00
  WS02006249WS02006248 CONDUIT    418.24     0  02:36      1.41    2.29    1.00
  WS02006251WS02006249 CONDUIT    486.52     0  02:16      1.99    1.40    1.00
  WS02006252WS02006251 CONDUIT    405.37     0  02:15     24.55    1.49    1.00
  WS02006256WS02006235 CONDUIT    288.91     0  00:00      4.23    3.06    1.00
  WSF200WS02003060     CONDUIT    499.14     0  02:39      1.55    0.11    0.33
  YS02001580YS02001583 CONDUIT     79.23     0  02:16      0.59    0.31    1.00
  YS02001583YS02001586 CONDUIT    147.93     0  02:16      0.61    0.22    1.00
  YS02001586YS02001590 CONDUIT    317.88     0  02:30      1.27    0.56    1.00
  YS02001590YS02001593 CONDUIT    318.26     0  02:32      1.13    2.00    1.00
  YS02001593YS02001596 CONDUIT    318.02     0  02:35      1.63    0.50    1.00
  YS02001596YS02001600 CONDUIT    318.01     0  02:33      1.12    0.62    1.00
  YS02001600YS02001601 CONDUIT    317.99     0  02:36      1.12    0.55    1.00
  YS02001601YS02001602 CONDUIT    502.30     0  02:16      1.78    1.81    1.00
  YS02001602YS02001605 CONDUIT    502.05     0  02:16      1.78   10.62    1.00
  YS02001605YS02001607 CONDUIT    501.68     0  02:16      1.77    2.75    1.00
  YS02001607YS02001610 CONDUIT    502.06     0  02:16      0.64    0.48    1.00
  YS02001610YS02001613 CONDUIT    500.78     0  02:16      0.64    0.58    1.00
  YS02001613YS02001616 CONDUIT    500.30     0  02:15      0.64    0.43    1.00
  YS02001616YS02001619 CONDUIT    493.12     0  02:16      0.65    0.86    1.00
  YS02001619YS02001622 CONDUIT    932.67     0  02:19      1.19    1.37    1.00
  YS02001622YS02001625 CONDUIT    932.25     0  02:19      1.19    0.50    1.00
  YS02001625YS02001629 CONDUIT    931.66     0  02:19      1.19    0.44    1.00
  YS02001629YS02163301 CONDUIT    931.09     0  02:19      1.19    1.15    1.00
  YS02001633YS02163601 CONDUIT   1373.13     0  02:19      1.75    1.44    1.00
  YS02001641YS02001644 CONDUIT   1369.64     0  02:19      1.74    4.43    1.00
  YS02001644YS02001647 CONDUIT   1750.75     0  02:19      2.24    1.03    1.00
  YS02001647YS02001649 CONDUIT   1742.39     0  02:20      2.33    0.92    1.00
  YS02001649YS02001757 CONDUIT   1918.48     0  02:19      2.48    1.16    1.00
  YS02001652YS02001649 CONDUIT    735.45     0  02:24      0.94    0.36    1.00
  YS02001655YS02001652 CONDUIT    735.38     0  02:24      1.26    0.36    1.00
  YS02001658YS02001655 CONDUIT    735.87     0  02:24      1.87    0.31    1.00
  YS02001661YS02001658 CONDUIT    734.91     0  02:24      2.28    0.29    1.00
  YS02001664YS02001661 CONDUIT    819.95     0  02:25      2.25    0.26    0.76
  YS02001745YS02001748 CONDUIT    506.81     0  02:22      2.08    0.20    0.87
  YS02001748YS02001751 CONDUIT    433.57     0  02:24      1.62    0.22    1.00
  YS02001751YS02001754 CONDUIT    433.41     0  02:24      1.37    0.21    1.00
  YS02001754YS02001757 CONDUIT    433.74     0  02:24      0.55    0.17    1.00
  YS02001757CaochengTiaoxuchi CONDUIT   3167.88     0  02:23      4.03    1.37    1.00
  YS02001759YS02001757 CONDUIT   1267.78     0  02:24      1.61    0.90    1.00
  YS02001762YS02001759 CONDUIT    695.50     0  02:23      0.89    0.80    1.00
  YS02001765YS02001762 CONDUIT    694.86     0  02:23      0.88    0.65    1.00
  YS02001767YS02001765 CONDUIT    695.27     0  02:23      0.89    0.87    1.00
  YS02001770YS02001767 CONDUIT    694.93     0  02:23      0.88    2.75    1.00
  YS02001774YS02001770 CONDUIT    334.13     0  02:20      0.43    0.21    1.00
  YS02001779YS02001774 CONDUIT    338.55     0  02:20      0.43    0.17    1.00
  YS02001783YS02001784 CONDUIT    978.94     0  02:24      1.95    1.35    1.00
  YS02001784YS02001785 CONDUIT    979.96     0  02:24      1.95    2.28    1.00
  YS02001786YS02001788 CONDUIT    979.92     0  02:24      1.95    1.89    1.00
  YS02001788YS02001790 CONDUIT    980.11     0  02:24      1.95    0.72    1.00
  YS02001790YS02001791 CONDUIT    980.28     0  02:24      2.28    1.07    1.00
  YS02001791YS02001793 CONDUIT    980.66     0  02:24      4.32    0.42    1.00
  YS02001793JiankangQianchi CONDUIT    980.91     0  02:24      1.54    0.08    1.00
  YS02001882YS02001884 CONDUIT     39.28     0  02:18      0.10    0.05    1.00
  YS02001884YS02001887 CONDUIT     82.08     0  02:18      0.10    0.11    1.00
  YS02001887YS02001890 CONDUIT    661.15     0  02:25      0.84    1.13    1.00
  YS02001890YS02001895 CONDUIT    515.45     0  02:27      0.66    0.24    1.00
  YS02001895YS02001898 CONDUIT    515.45     0  02:27      0.66    0.89    1.00
  YS02001898YS02001901 CONDUIT    515.45     0  02:27      0.66    0.33    1.00
  YS02001901YS02001904 CONDUIT    515.46     0  02:27      0.66    0.80    1.00
  YS02001904YS02001907 CONDUIT    515.46     0  02:27      0.66    0.18    1.00
  YS02001907YS02006553 CONDUIT    681.04     0  02:35      0.76    0.80    1.00
  YS02001910YS02001907 CONDUIT   1130.41     0  02:25      1.44    0.64    1.00
  YS02001915YS02001910 CONDUIT   1130.26     0  02:25      1.44    0.56    1.00
  YS02001918YS02001915 CONDUIT    441.90     0  02:21      0.56    0.24    1.00
  YS02001920YS02001918 CONDUIT    441.19     0  02:21      0.64    0.43    1.00
  YS02001923YS02001920 CONDUIT    438.22     0  02:21      0.70    0.20    1.00
  YS02001926YS02001923 CONDUIT    415.15     0  02:20      0.94    0.59    1.00
  YS02001929YS02001926 CONDUIT    410.61     0  02:25      1.10    0.19    1.00
  YS02006553YS02006556 CONDUIT    680.50     0  02:35      0.87    0.58    1.00
  YS02006556YS02006558 CONDUIT    683.04     0  02:35      0.87    0.54    1.00
  YS02006558YS02006561 CONDUIT    978.34     0  02:24      3.46    2.16    1.00
  YS02006561YS02001783 CONDUIT    978.20     0  02:24      1.95    0.51    1.00
  YS02163301YS02001633 CONDUIT    930.23     0  02:19      1.18    0.87    1.00
  YS02163601YS02164001 CONDUIT   1373.25     0  02:19      1.75    1.22    1.00
  YS02164001YS02001641 CONDUIT   1370.58     0  02:19      1.75    1.87    1.00
  CC-R1                PUMP       683.00     0  00:00              1.00
  CC-R2                PUMP       683.00     0  00:00              1.00
  CC-S1                PUMP       200.00     0  00:00              1.00
  CC-S2                PUMP       200.00     0  00:00              1.00
  JK-R1                PUMP      1000.00     0  00:00              1.00
  JK-R2                PUMP      1000.00     0  00:00              1.00
  JK-S                 PUMP       300.00     0  00:00              1.00
  XR-1                 PUMP        95.00     0  00:00              1.00
  XR-2                 PUMP        95.00     0  00:00              1.00
  XR-3                 PUMP        95.00     0  00:00              1.00
  XR-4                 PUMP        95.00     0  00:00              1.00
  
  
  ***************************
  Flow Classification Summary
  ***************************
  
  -------------------------------------------------------------------------------------
                      Adjusted    ---------- Fraction of Time in Flow Class ---------- 
                       /Actual         Up    Down  Sub   Sup   Up    Down  Norm  Inlet 
  Conduit               Length    Dry  Dry   Dry   Crit  Crit  Crit  Crit  Ltd   Ctrl  
  -------------------------------------------------------------------------------------
  1                       1.00   0.00  0.00  0.00  0.00  1.00  0.00  0.00  0.31  0.00
  WS02001211WS02001212    1.00   0.00  0.00  0.00  1.00  0.00  0.00  0.00  0.00  0.00
  WS02001212WS02001213    1.00   0.00  0.00  0.00  0.53  0.00  0.47  0.00  0.00  0.00
  WS02001213WS02003059    1.00   0.00  0.00  0.00  0.99  0.00  0.00  0.00  0.00  0.00
  WS02003059WS02003060    1.00   0.00  0.00  0.00  1.00  0.00  0.00  0.00  0.00  0.00
  WS02003060WS02003069    1.00   0.00  0.00  0.00  0.99  0.01  0.00  0.00  0.00  0.00
  WS02003066WSF200        1.00   0.02  0.10  0.00  0.00  0.88  0.00  0.00  0.85  0.00
  WS02003067WS02003066    1.00   0.10  0.02  0.00  0.89  0.00  0.00  0.00  0.00  0.00
  WS02003069WS02003072    1.00   0.00  0.00  0.00  0.99  0.01  0.00  0.00  0.00  0.00
  WS02003072WS02003073    1.00   0.00  0.00  0.00  0.00  0.00  0.00  1.00  0.00  0.00
  WS02004138WS02004139    1.00   0.00  0.00  0.00  0.99  0.01  0.00  0.00  1.00  0.00
  WS02004139WS02001211    1.00   0.00  0.00  0.00  1.00  0.00  0.00  0.00  0.00  0.00
  WS02004401WS02004402    1.00   0.02  0.00  0.00  0.98  0.00  0.00  0.00  0.00  0.00
  WS02004402WS02004403    1.00   0.02  0.00  0.00  0.98  0.00  0.00  0.00  0.00  0.00
  WS02004403WS02004404    1.00   0.00  0.03  0.00  0.97  0.00  0.00  0.00  0.00  0.00
  WS02004404WS02004405    1.00   0.00  0.00  0.00  1.00  0.00  0.00  0.00  0.01  0.00
  WS02004405WS02004406    1.00   0.00  0.00  0.00  1.00  0.00  0.00  0.00  0.00  0.00
  WS02004406WS02004407    1.00   0.00  0.05  0.00  0.95  0.00  0.00  0.00  0.00  0.00
  WS02004407WS02004409    1.00   0.05  0.00  0.00  0.94  0.01  0.00  0.00  0.94  0.00
  WS02004409WS02004410    1.00   0.05  0.00  0.00  0.95  0.00  0.00  0.00  0.03  0.00
  WS02004410WS02004411    1.00   0.05  0.00  0.00  0.95  0.00  0.00  0.00  0.00  0.00
  WS02004411WS02004412    1.00   0.05  0.00  0.00  0.95  0.00  0.00  0.00  0.00  0.00
  WS02004412WS02004413    1.00   0.05  0.00  0.00  0.94  0.00  0.00  0.00  0.01  0.00
  WS02004413WS02003067    1.00   0.06  0.04  0.00  0.00  0.00  0.90  0.00  0.00  0.00
  WS02006109WS02006110    1.00   0.00  0.01  0.00  0.98  0.00  0.01  0.00  0.00  0.00
  WS02006110WS02006113    1.00   0.01  0.01  0.00  0.98  0.00  0.00  0.00  0.00  0.00
  WS02006111WS02006112    1.00   0.02  0.00  0.00  0.98  0.00  0.00  0.00  0.98  0.00
  WS02006112WS02006115    1.00   0.02  0.00  0.00  0.97  0.00  0.00  0.00  0.00  0.00
  WS02006113WS02006111    1.00   0.02  0.00  0.00  0.00  0.98  0.00  0.00  0.18  0.00
  WS02006115WS02006116    1.00   0.02  0.00  0.00  0.97  0.00  0.00  0.01  0.00  0.00
  WS02006116WS02004401    1.00   0.02  0.00  0.00  0.98  0.00  0.00  0.00  0.00  0.00
  WS02006228WS02006109    1.00   0.00  0.00  0.00  1.00  0.00  0.00  0.00  0.01  0.00
  WS02006229WS02006228    1.00   0.00  0.00  0.00  0.99  0.00  0.00  0.01  0.00  0.00
  WS02006230WS02006229    1.00   0.00  0.00  0.00  0.99  0.00  0.00  0.01  0.00  0.00
  WS02006231WS02006230    1.00   0.00  0.00  0.00  0.18  0.00  0.81  0.00  0.00  0.00
  WS02006232WS02006231    1.00   0.00  0.00  0.00  0.98  0.00  0.01  0.00  0.00  0.00
  WS02006234WS02006232    1.00   0.00  0.00  0.00  1.00  0.00  0.00  0.00  0.33  0.00
  WS02006235WS02006234    1.00   0.00  0.00  0.00  0.63  0.00  0.37  0.00  0.00  0.00
  WS02006238WS02006235    1.00   0.00  0.00  0.00  1.00  0.00  0.00  0.00  0.00  0.00
  WS02006239WS02006238    1.00   0.00  0.00  0.00  1.00  0.00  0.00  0.00  0.44  0.00
  WS02006240WS02006239    1.00   0.00  0.00  0.00  0.51  0.00  0.00  0.49  0.02  0.00
  WS02006242WS02006240    1.00   0.00  0.00  0.00  0.98  0.00  0.01  0.00  0.00  0.00
  WS02006243WS02006242    1.00   0.00  0.00  0.00  0.98  0.00  0.00  0.01  0.58  0.00
  WS02006245WS02006243    1.00   0.00  0.00  0.00  0.59  0.00  0.00  0.41  0.00  0.00
  WS02006247WS02006245    1.00   0.00  0.00  0.00  0.98  0.00  0.00  0.02  0.00  0.00
  WS02006248WS02006247    1.00   0.00  0.00  0.00  0.98  0.00  0.00  0.01  0.22  0.00
  WS02006249WS02006248    1.00   0.00  0.00  0.00  0.41  0.00  0.59  0.00  0.00  0.00
  WS02006251WS02006249    1.00   0.00  0.00  0.00  0.99  0.01  0.00  0.00  0.61  0.00
  WS02006252WS02006251    1.00   0.02  0.30  0.00  0.01  0.00  0.67  0.00  0.01  0.00
  WS02006256WS02006235    1.00   0.00  0.00  0.00  1.00  0.00  0.00  0.00  0.00  0.00
  WSF200WS02003060        1.00   0.00  0.02  0.00  0.98  0.00  0.00  0.00  0.74  0.00
  YS02001580YS02001583    1.00   0.28  0.55  0.00  0.17  0.00  0.00  0.00  0.64  0.00
  YS02001583YS02001586    1.00   0.48  0.30  0.00  0.22  0.00  0.00  0.00  0.64  0.00
  YS02001586YS02001590    1.00   0.13  0.00  0.00  0.40  0.04  0.00  0.44  0.35  0.00
  YS02001590YS02001593    1.00   0.13  0.01  0.00  0.10  0.00  0.77  0.00  0.00  0.00
  YS02001593YS02001596    1.00   0.14  0.00  0.00  0.73  0.01  0.00  0.13  0.62  0.00
  YS02001596YS02001600    1.00   0.14  0.00  0.00  0.77  0.01  0.00  0.08  0.03  0.00
  YS02001600YS02001601    1.00   0.13  0.01  0.00  0.86  0.00  0.00  0.00  0.05  0.00
  YS02001601YS02001602    1.00   0.13  0.01  0.00  0.86  0.00  0.00  0.00  0.00  0.00
  YS02001602YS02001605    1.00   0.14  0.00  0.00  0.86  0.00  0.00  0.00  0.00  0.00
  YS02001605YS02001607    1.00   0.14  0.00  0.00  0.86  0.00  0.00  0.00  0.00  0.00
  YS02001607YS02001610    1.00   0.13  0.01  0.00  0.86  0.00  0.00  0.00  0.02  0.00
  YS02001610YS02001613    1.00   0.13  0.00  0.00  0.87  0.00  0.00  0.00  0.01  0.00
  YS02001613YS02001616    1.00   0.13  0.00  0.00  0.87  0.00  0.00  0.00  0.01  0.00
  YS02001616YS02001619    1.00   0.13  0.00  0.00  0.87  0.00  0.00  0.00  0.00  0.00
  YS02001619YS02001622    1.00   0.13  0.00  0.00  0.87  0.00  0.00  0.00  0.00  0.00
  YS02001622YS02001625    1.00   0.13  0.00  0.00  0.87  0.00  0.00  0.00  0.05  0.00
  YS02001625YS02001629    1.00   0.13  0.06  0.00  0.74  0.00  0.07  0.00  0.00  0.00
  YS02001629YS02163301    1.00   0.16  0.01  0.00  0.83  0.00  0.00  0.00  0.00  0.00
  YS02001633YS02163601    1.00   0.00  0.01  0.00  0.99  0.00  0.00  0.00  0.15  0.00
  YS02001641YS02001644    1.00   0.00  0.01  0.00  0.99  0.00  0.00  0.00  0.00  0.00
  YS02001644YS02001647    1.00   0.00  0.18  0.00  0.82  0.00  0.00  0.00  0.00  0.00
  YS02001647YS02001649    1.00   0.00  0.18  0.00  0.76  0.06  0.00  0.00  0.02  0.00
  YS02001649YS02001757    1.00   0.00  0.00  0.00  0.93  0.07  0.00  0.00  0.19  0.00
  YS02001652YS02001649    1.00   0.00  0.00  0.00  0.96  0.04  0.00  0.00  0.20  0.00
  YS02001655YS02001652    1.00   0.00  0.00  0.00  0.74  0.01  0.00  0.25  0.02  0.00
  YS02001658YS02001655    1.00   0.00  0.14  0.00  0.72  0.14  0.00  0.00  0.09  0.00
  YS02001661YS02001658    1.00   0.14  0.00  0.00  0.71  0.15  0.00  0.00  0.06  0.00
  YS02001664YS02001661    1.00   0.13  0.00  0.00  0.82  0.06  0.00  0.00  0.86  0.00
  YS02001745YS02001748    1.00   0.00  0.00  0.00  0.71  0.00  0.00  0.29  0.00  0.00
  YS02001748YS02001751    1.00   0.00  0.00  0.00  0.85  0.15  0.00  0.00  0.13  0.00
  YS02001751YS02001754    1.00   0.00  0.00  0.00  0.72  0.00  0.00  0.27  0.01  0.00
  YS02001754YS02001757    1.00   0.00  0.00  0.00  1.00  0.00  0.00  0.00  0.27  0.00
  YS02001757CaochengTiaoxuchi    1.00   0.00  0.00  0.00  1.00  0.00  0.00  0.00  0.25  0.00
  YS02001759YS02001757    1.00   0.00  0.00  0.00  1.00  0.00  0.00  0.00  0.08  0.00
  YS02001762YS02001759    1.00   0.00  0.00  0.00  1.00  0.00  0.00  0.00  0.05  0.00
  YS02001765YS02001762    1.00   0.00  0.00  0.00  1.00  0.00  0.00  0.00  0.17  0.00
  YS02001767YS02001765    1.00   0.00  0.00  0.00  1.00  0.00  0.00  0.00  0.00  0.00
  YS02001770YS02001767    1.00   0.00  0.00  0.00  1.00  0.00  0.00  0.00  0.00  0.00
  YS02001774YS02001770    1.00   0.00  0.13  0.00  0.86  0.00  0.00  0.00  0.04  0.00
  YS02001779YS02001774    1.00   0.00  0.00  0.00  1.00  0.00  0.00  0.00  0.20  0.00
  YS02001783YS02001784    1.00   0.00  0.19  0.00  0.81  0.00  0.00  0.00  0.00  0.00
  YS02001784YS02001785    1.00   0.00  0.00  0.00  1.00  0.00  0.00  0.00  0.18  0.00
  YS02001786YS02001788    1.00   0.00  0.00  0.00  0.94  0.06  0.00  0.00  0.00  0.00
  YS02001788YS02001790    1.00   0.00  0.00  0.00  0.93  0.07  0.00  0.00  0.21  0.00
  YS02001790YS02001791    1.00   0.00  0.00  0.00  0.75  0.25  0.00  0.00  0.05  0.00
  YS02001791YS02001793    1.00   0.00  0.00  0.00  0.74  0.26  0.00  0.00  0.01  0.00
  YS02001793JiankangQianchi    1.00   0.00  0.00  0.00  0.94  0.06  0.00  0.00  0.23  0.00
  YS02001882YS02001884    1.00   0.16  0.01  0.00  0.83  0.00  0.00  0.00  0.00  0.00
  YS02001884YS02001887    1.00   0.06  0.05  0.00  0.89  0.00  0.00  0.00  0.00  0.00
  YS02001887YS02001890    1.00   0.00  0.00  0.00  0.97  0.00  0.03  0.00  0.00  0.00
  YS02001890YS02001895    1.00   0.00  0.17  0.00  0.83  0.00  0.00  0.00  0.00  0.00
  YS02001895YS02001898    1.00   0.17  0.00  0.00  0.81  0.00  0.02  0.00  0.00  0.00
  YS02001898YS02001901    1.00   0.17  0.00  0.00  0.82  0.00  0.00  0.00  0.02  0.00
  YS02001901YS02001904    1.00   0.17  0.00  0.00  0.83  0.00  0.00  0.00  0.00  0.00
  YS02001904YS02001907    1.00   0.00  0.17  0.00  0.83  0.00  0.00  0.00  0.00  0.00
  YS02001907YS02006553    1.00   0.00  0.02  0.00  0.98  0.00  0.00  0.00  0.00  0.00
  YS02001910YS02001907    1.00   0.00  0.00  0.00  0.97  0.00  0.00  0.03  0.12  0.00
  YS02001915YS02001910    1.00   0.00  0.00  0.00  0.96  0.04  0.00  0.00  0.17  0.00
  YS02001918YS02001915    1.00   0.00  0.01  0.00  0.98  0.02  0.00  0.00  0.78  0.00
  YS02001920YS02001918    1.00   0.00  0.01  0.00  0.99  0.00  0.00  0.00  0.00  0.00
  YS02001923YS02001920    1.00   0.00  0.00  0.00  1.00  0.00  0.00  0.00  0.94  0.00
  YS02001926YS02001923    1.00   0.00  0.07  0.00  0.04  0.00  0.88  0.00  0.00  0.00
  YS02001929YS02001926    1.00   0.00  0.13  0.00  0.87  0.00  0.00  0.00  0.84  0.00
  YS02006553YS02006556    1.00   0.01  0.00  0.00  0.99  0.00  0.00  0.00  0.03  0.00
  YS02006556YS02006558    1.00   0.00  0.00  0.00  1.00  0.00  0.00  0.00  0.00  0.00
  YS02006558YS02006561    1.00   0.19  0.00  0.00  0.06  0.75  0.00  0.00  0.18  0.00
  YS02006561YS02001783    1.00   0.19  0.00  0.00  0.73  0.08  0.00  0.00  0.72  0.00
  YS02163301YS02001633    1.00   0.00  0.16  0.00  0.84  0.00  0.00  0.00  0.00  0.00
  YS02163601YS02164001    1.00   0.00  0.08  0.00  0.92  0.00  0.00  0.00  0.00  0.00
  YS02164001YS02001641    1.00   0.01  0.07  0.00  0.92  0.00  0.00  0.00  0.06  0.00
  
  
  *************************
  Conduit Surcharge Summary
  *************************
  
  ----------------------------------------------------------------------------
                                                           Hours        Hours 
                         --------- Hours Full --------   Above Full   Capacity
  Conduit                Both Ends  Upstream  Dnstream   Normal Flow   Limited
  ----------------------------------------------------------------------------
  WS02003072WS02003073        0.01      0.01      0.01      3.28         0.01
  WS02004404WS02004405        0.01      0.01      0.01      3.05         0.01
  WS02004405WS02004406        0.01      0.01      0.01      0.03         0.01
  WS02006109WS02006110        0.06      0.06      1.29      0.07         0.01
  WS02006110WS02006113        0.01      0.01      1.23      0.01         0.01
  WS02006111WS02006112        0.01      0.01      1.49      0.01         0.01
  WS02006112WS02006115        0.01      0.01      0.04      0.01         0.01
  WS02006228WS02006109        1.16      1.29      1.16      1.93         1.16
  WS02006229WS02006228        1.14      1.19      1.14      1.61         1.14
  WS02006230WS02006229        1.41      1.50      1.41      3.58         1.41
  WS02006231WS02006230        0.06      0.06      0.08      3.22         0.01
  WS02006232WS02006231        0.08      0.08      1.30      0.08         0.01
  WS02006234WS02006232        1.09      1.09      1.30      0.08         0.08
  WS02006235WS02006234        0.11      0.11      1.18      2.89         0.01
  WS02006238WS02006235        1.20      1.20      1.31      0.01         0.01
  WS02006239WS02006238        1.24      1.29      1.24      1.73         1.21
  WS02006240WS02006239        1.19      1.22      1.19      1.75         1.16
  WS02006242WS02006240        1.20      1.20      1.44      1.97         0.01
  WS02006243WS02006242        1.25      1.25      1.37      0.01         0.01
  WS02006245WS02006243        1.23      1.25      1.23      1.85         1.17
  WS02006247WS02006245        1.23      1.28      1.23      2.40         1.23
  WS02006248WS02006247        1.24      1.24      1.26      0.01         0.01
  WS02006249WS02006248        1.22      1.22      1.25      2.33         0.01
  WS02006251WS02006249        1.25      1.27      1.25      2.10         1.24
  WS02006252WS02006251        2.17      2.17      2.18      2.18         0.01
  WS02006256WS02006235        3.07      3.07      4.47      0.10         0.01
  YS02001580YS02001583        0.41      0.41      0.45      0.01         0.01
  YS02001583YS02001586        0.42      0.42      0.55      0.01         0.01
  YS02001586YS02001590        0.56      0.56      0.63      0.01         0.01
  YS02001590YS02001593        0.64      0.64      0.65      0.62         0.01
  YS02001593YS02001596        0.64      0.64      0.78      0.01         0.01
  YS02001596YS02001600        0.87      0.87      1.11      0.01         0.01
  YS02001600YS02001601        1.95      1.95      6.05      0.01         0.01
  YS02001601YS02001602        5.98      5.98      6.07      0.83         0.01
  YS02001602YS02001605        5.95      5.95      5.98      2.02         0.33
  YS02001605YS02001607        5.92      5.95      5.92      1.07         0.94
  YS02001607YS02001610        0.81      0.81      0.94      0.01         0.01
  YS02001610YS02001613        0.81      0.81      0.94      0.01         0.01
  YS02001613YS02001616        0.74      0.74      0.81      0.01         0.01
  YS02001616YS02001619        0.71      0.71      0.74      0.01         0.01
  YS02001619YS02001622        0.71      0.71      0.74      0.54         0.47
  YS02001622YS02001625        0.74      0.74      5.52      0.01         0.01
  YS02001625YS02001629        0.66      0.66      5.52      0.01         0.01
  YS02001629YS02163301        5.77      5.77      5.78      0.07         0.07
  YS02001633YS02163601        5.78      5.78      5.79      0.15         0.16
  YS02001641YS02001644        5.74      5.75      5.74      1.13         0.91
  YS02001644YS02001647        5.35      5.35      5.74      0.02         0.01
  YS02001647YS02001649        5.35      5.35      5.68      0.01         0.01
  YS02001649YS02001757        5.67      5.68      5.67      0.09         0.03
  YS02001652YS02001649        5.41      5.41      5.68      0.01         0.01
  YS02001655YS02001652        0.43      0.43      5.19      0.01         0.01
  YS02001658YS02001655        0.13      0.13      0.43      0.01         0.01
  YS02001661YS02001658        0.01      0.01      0.13      0.01         0.01
  YS02001664YS02001661        0.01      0.01      0.03      0.01         0.01
  YS02001745YS02001748        0.01      0.01      0.09      0.01         0.01
  YS02001748YS02001751        0.12      0.12      0.22      0.01         0.01
  YS02001751YS02001754        0.22      0.22      4.83      0.01         0.01
  YS02001754YS02001757        5.36      5.36      5.67      0.01         0.01
  YS02001757CaochengTiaoxuchi        5.67      5.67      5.70      0.22         0.20
  YS02001759YS02001757        5.67      5.67      5.67      0.01         0.01
  YS02001762YS02001759        5.66      5.66      5.67      0.01         0.01
  YS02001765YS02001762        5.66      5.66      5.66      0.01         0.01
  YS02001767YS02001765        5.66      5.66      5.66      0.01         0.01
  YS02001770YS02001767        5.66      5.66      5.66      0.35         0.44
  YS02001774YS02001770        5.66      5.66      5.66      0.01         0.01
  YS02001779YS02001774        1.97      1.97      5.66      0.01         0.01
  YS02001783YS02001784        0.58      0.58      0.61      0.44         0.46
  YS02001784YS02001785        0.59      0.61      0.59      0.67         0.59
  YS02001786YS02001788        0.58      0.59      0.58      0.62         0.58
  YS02001788YS02001790        0.58      0.58      5.85      0.01         0.01
  YS02001790YS02001791        5.85      5.85      5.86      0.26         0.26
  YS02001791YS02001793        5.86      5.86      5.91      0.01         0.01
  YS02001793JiankangQianchi        5.89      5.89      6.20      0.01         0.01
  YS02001882YS02001884        0.36      0.36      0.37      0.01         0.01
  YS02001884YS02001887        0.39      0.39      0.39      0.01         0.01
  YS02001887YS02001890        0.40      0.40      0.41      0.05         0.01
  YS02001890YS02001895        0.35      0.35      0.43      0.01         0.01
  YS02001895YS02001898        0.34      0.34      0.35      0.01         0.01
  YS02001898YS02001901        0.35      0.35      0.38      0.01         0.01
  YS02001901YS02001904        0.38      0.38      0.38      0.01         0.01
  YS02001904YS02001907        0.38      0.38      0.60      0.01         0.01
  YS02001907YS02006553        0.70      0.70      0.75      0.01         0.01
  YS02001910YS02001907        0.43      0.43      0.58      0.01         0.01
  YS02001915YS02001910        0.35      0.35      0.43      0.01         0.01
  YS02001918YS02001915        0.28      0.28      0.35      0.01         0.01
  YS02001920YS02001918        0.28      0.28      0.29      0.01         0.01
  YS02001923YS02001920        0.24      0.24      0.29      0.01         0.01
  YS02001926YS02001923        0.02      0.02      0.03      0.01         0.01
  YS02001929YS02001926        0.01      0.01      0.03      0.01         0.01
  YS02006553YS02006556        0.51      0.51      0.59      0.01         0.01
  YS02006556YS02006558        0.54      0.54      0.61      0.01         0.01
  YS02006558YS02006561        0.39      0.49      0.39      0.66         0.39
  YS02006561YS02001783        0.31      0.31      0.59      0.01         0.01
  YS02163301YS02001633        5.78      5.78      5.79      0.01         0.01
  YS02163601YS02164001        5.76      5.76      5.79      0.08         0.01
  YS02164001YS02001641        5.75      5.76      5.75      0.47         0.40
  
  
  ***************
  Pumping Summary
  ***************
  
  ---------------------------------------------------------------------------------------------------------
                                                  Min       Avg       Max     Total     Power    % Time Off
                        Percent   Number of      Flow      Flow      Flow    Volume     Usage    Pump Curve
  Pump                 Utilized   Start-Ups       LPS       LPS       LPS  10^6 ltr     Kw-hr    Low   High
  ---------------------------------------------------------------------------------------------------------
  CC-R1                    1.06           1      0.00    683.00    683.00     0.208      3.51    0.0  100.0
  CC-R2                    1.06           1      0.00    683.00    683.00     0.208      3.51    0.0  100.0
  CC-S1                   29.27           9      0.00    200.00    200.00     1.686      7.78    0.0   52.9
  CC-S2                   28.23           9      0.00    200.00    200.00     1.626      7.61    0.0   51.2
  JK-R1                    0.97           2      0.00    347.46   1000.00     0.078      0.47    0.0    0.0
  JK-R2                    0.97           2      0.00    347.46   1000.00     0.078      0.47    0.0    0.0
  JK-S                     2.02           3      0.00    214.33    300.00     0.114      1.11    0.0    0.0
  XR-1                   100.00           1      0.00     95.00     95.00     2.736     68.18    0.0    0.0
  XR-2                   100.00           1      0.00     95.00     95.00     2.736     68.18    0.0    0.0
  XR-3                   100.00           1      0.00     95.00     95.00     2.736     68.18    0.0    0.0
  XR-4                   100.00           1      0.00     95.00     95.00     2.736     68.18    0.0    0.0
  

  Analysis begun on:  Wed Nov  5 16:28:11 2025
  Analysis ended on:  Wed Nov  5 16:28:14 2025
  Total elapsed time: 00:00:03