
  EPA STORM WATER MANAGEMENT MODEL - VERSION 5.2 (Build 5.2.4)
  PYSWMM TOOLKIT API - VERSION v1.0 (2023-11-27)
  ------------------------------------------------------------

  WARNING 04: minimum elevation drop used for Conduit WS02004404WS02004405
  WARNING 03: negative offset ignored for Link YS02001904YS02001907
  
  ****************
  Analysis Options
  ****************
  Flow Units ............... LPS
  Process Models:
    Rainfall/Runoff ........ YES
    RDII ................... NO
    Snowmelt ............... NO
    Groundwater ............ NO
    Flow Routing ........... YES
    Ponding Allowed ........ NO
    Water Quality .......... NO
  Infiltration Method ...... HORTON
  Flow Routing Method ...... DYNWAVE
  Surcharge Method ......... EXTRAN
  Starting Date ............ 08/28/2015 08:00:00
  Ending Date .............. 08/28/2015 16:00:00
  Antecedent Dry Days ...... 8.0
  Report Time Step ......... 00:01:00
  Wet Time Step ............ 00:01:00
  Dry Time Step ............ 00:01:00
  Routing Time Step ........ 30.00 sec
  Variable Time Step ....... YES
  Maximum Trials ........... 8
  Number of Threads ........ 4
  Head Tolerance ........... 0.001500 m
  
  
  **************************        Volume         Depth
  Runoff Quantity Continuity     hectare-m            mm
  **************************     ---------       -------
  Initial LID Storage ......         0.049         1.488
  Total Precipitation ......         1.730        52.165
  Evaporation Loss .........         0.000         0.000
  Infiltration Loss ........         0.077         2.309
  Surface Runoff ...........         1.264        38.094
  Final Storage ............         0.440        13.280
  Continuity Error (%) .....        -0.055
  
  
  **************************        Volume        Volume
  Flow Routing Continuity        hectare-m      10^6 ltr
  **************************     ---------     ---------
  Dry Weather Inflow .......         0.602         6.020
  Wet Weather Inflow .......         1.264        12.637
  Groundwater Inflow .......         0.000         0.000
  RDII Inflow ..............         0.000         0.000
  External Inflow ..........         0.105         1.045
  External Outflow .........         1.496        14.963
  Flooding Loss ............         0.439         4.391
  Evaporation Loss .........         0.000         0.000
  Exfiltration Loss ........         0.000         0.000
  Initial Stored Volume ....         0.303         3.031
  Final Stored Volume ......         0.794         7.945
  Continuity Error (%) .....       -20.085
  
  
  *************************
  Highest Continuity Errors
  *************************
  Node YS02001774 (29.56%)
  Node WS02006256 (-5.67%)
  Node YS02001884 (5.18%)
  Node YS02001754 (4.46%)
  Node YS02001751 (3.70%)
  
  
  ***************************
  Time-Step Critical Elements
  ***************************
  Link WS02001212WS02001213 (31.21%)
  Link WS02006238WS02006235 (25.17%)
  Link WS02006235WS02006234 (15.18%)
  Link YS02006556YS02006558 (6.00%)
  Link WS02006252WS02006251 (5.49%)
  
  
  ********************************
  Highest Flow Instability Indexes
  ********************************
  Link WS02006113WS02006111 (39)
  Link WS02006238WS02006235 (30)
  Link WS02006256WS02006235 (28)
  Link WS02006111WS02006112 (25)
  Link WS02006252WS02006251 (23)
  
  
  *********************************
  Most Frequent Nonconverging Nodes
  *********************************
  Node CC-1 (12.12%)
  Node CC-2 (12.12%)
  Node JK-1 (12.12%)
  Node JK-2 (12.12%)
  Node WSC (12.12%)
  
  
  *************************
  Routing Time Step Summary
  *************************
  Minimum Time Step           :     0.01 sec
  Average Time Step           :     3.51 sec
  Maximum Time Step           :     6.46 sec
  % of Time in Steady State   :     0.00
  Average Iterations per Step :     3.34
  % of Steps Not Converging   :    12.12
  Time Step Frequencies       :
     30.000 - 13.228 sec      :     0.00 %
     13.228 -  5.833 sec      :    30.02 %
      5.833 -  2.572 sec      :    33.70 %
      2.572 -  1.134 sec      :    22.63 %
      1.134 -  0.500 sec      :    13.65 %
  
  
  ***************************
  Subcatchment Runoff Summary
  ***************************
  
  ------------------------------------------------------------------------------------------------------------------------------
                            Total      Total      Total      Total     Imperv       Perv      Total       Total     Peak  Runoff
                           Precip      Runon       Evap      Infil     Runoff     Runoff     Runoff      Runoff   Runoff   Coeff
  Subcatchment                 mm         mm         mm         mm         mm         mm         mm    10^6 ltr      LPS
  ------------------------------------------------------------------------------------------------------------------------------
  sub60                     52.17       0.00       0.00       1.36      34.50       3.47      37.97        0.50   354.91   0.728
  sub61                     52.17       0.00       0.00       2.09      34.47       5.16      39.63        0.73   518.59   0.760
  sub62                     52.17       0.00       0.00       0.92      36.75       2.36      39.10        1.07   710.21   0.750
  sub63                     52.17       0.00       0.00       3.86      29.52       8.52      38.05        0.86   592.82   0.729
  sub64                     52.17       0.00       0.00       1.85      33.61       4.25      37.86        0.91   580.12   0.726
  sub65                     52.17       0.00       0.00       1.70      36.28       3.87      40.15        1.11   676.26   0.770
  sub66                     52.17       0.00       0.00       4.54      28.54       7.46      36.00        1.68   887.93   0.690
  sub67                     52.17       0.00       0.00       0.92      37.68       2.45      40.13        0.75   547.26   0.769
  sub68                     52.17       0.00       0.00       1.61      33.27       3.96      37.23        1.02   708.18   0.714
  sub69                     52.17       0.00       0.00       1.48      35.06       4.72      39.78        1.47   874.02   0.763
  sub70                     52.17       0.00       0.00       4.99      28.08       9.53      37.60        1.09   512.66   0.721
  sub71                     52.17       0.00       0.00       0.85      33.38       2.13      35.51        0.93   585.35   0.681
  sub72                     52.17       0.00       0.00       0.82      36.05       1.98      38.02        0.52   301.46   0.729
  

  ***********************
  LID Performance Summary
  ***********************

  --------------------------------------------------------------------------------------------------------------------
                                         Total      Evap     Infil   Surface    Drain    Initial     Final  Continuity
                                        Inflow      Loss      Loss   Outflow   Outflow   Storage   Storage       Error
  Subcatchment      LID Control             mm        mm        mm        mm        mm        mm        mm           %
  --------------------------------------------------------------------------------------------------------------------
  sub60             GreenRoof            52.17      0.00      0.00      0.00      0.00      7.05     59.31       -0.17
  sub61             GreenRoof            52.17      0.00      0.00      0.00      0.00      7.05     59.31       -0.17
  sub62             GreenRoof            52.17      0.00      0.00      0.00      0.00      7.05     59.31       -0.17
  sub63             GreenRoof            52.17      0.00      0.00      0.00      0.00      7.05     59.31       -0.17
  sub64             GreenRoof            52.17      0.00      0.00      0.00      0.00      7.05     59.31       -0.17
  sub65             GreenRoof            52.17      0.00      0.00      0.00      0.00      7.05     59.31       -0.17
  sub66             GreenRoof            52.17      0.00      0.00      0.00      0.00      7.05     59.31       -0.17
  sub67             GreenRoof            52.17      0.00      0.00      0.00      0.00      7.05     59.31       -0.17
  sub68             GreenRoof            52.17      0.00      0.00      0.00      0.00      7.05     59.31       -0.17
  sub69             GreenRoof            52.17      0.00      0.00      0.00      0.00      7.05     59.31       -0.17
  sub70             GreenRoof            52.17      0.00      0.00      0.00      0.00      7.05     59.31       -0.17
  sub71             GreenRoof            52.17      0.00      0.00      0.00      0.00      7.05     59.31       -0.17
  sub72             GreenRoof            52.17      0.00      0.00      0.00      0.00      7.05     59.31       -0.17
  
  ******************
  Node Depth Summary
  ******************
  
  ---------------------------------------------------------------------------------
                                 Average  Maximum  Maximum  Time of Max    Reported
                                   Depth    Depth      HGL   Occurrence   Max Depth
  Node                 Type       Meters   Meters   Meters  days hr:min      Meters
  ---------------------------------------------------------------------------------
  WS02001211           JUNCTION     0.76     0.78     5.62     0  02:46        0.78
  WS02001212           JUNCTION     0.46     0.49     5.55     0  02:46        0.49
  WS02001213           JUNCTION     0.68     0.73     5.49     0  02:45        0.73
  WS02003059           JUNCTION     0.72     0.78     5.47     0  02:45        0.78
  WS02003060           JUNCTION     0.38     0.47     5.41     0  02:44        0.47
  WS02003066           JUNCTION     0.15     0.27     5.82     0  02:43        0.27
  WS02003067           JUNCTION     0.42     0.65     5.97     0  02:43        0.65
  WS02003069           JUNCTION     0.42     0.54     5.12     0  02:45        0.54
  WS02003072           JUNCTION     0.49     0.60     4.97     0  02:45        0.60
  WS02003073           JUNCTION     0.29     0.37     4.43     0  02:46        0.37
  WS02004138           JUNCTION     0.19     0.20     7.45     0  00:00        0.19
  WS02004139           JUNCTION     0.71     0.73     5.64     0  02:47        0.73
  WS02004401           JUNCTION     0.50     0.75     6.75     0  02:40        0.75
  WS02004402           JUNCTION     0.54     0.78     6.74     0  02:40        0.78
  WS02004403           JUNCTION     0.56     0.80     6.73     0  02:43        0.80
  WS02004404           JUNCTION     0.64     0.88     6.73     0  02:39        0.88
  WS02004405           JUNCTION     0.63     0.88     6.73     0  02:41        0.87
  WS02004406           JUNCTION     0.65     0.88     6.71     0  02:44        0.88
  WS02004407           JUNCTION     0.13     0.26     6.57     0  02:41        0.26
  WS02004409           JUNCTION     0.30     0.58     6.35     0  02:42        0.58
  WS02004410           JUNCTION     0.32     0.59     6.31     0  02:45        0.59
  WS02004411           JUNCTION     0.35     0.61     6.29     0  02:42        0.61
  WS02004412           JUNCTION     0.37     0.62     6.26     0  02:45        0.62
  WS02004413           JUNCTION     0.53     0.79     6.26     0  02:43        0.79
  WS02006109           JUNCTION     0.55     0.84     7.46     0  02:09        0.83
  WS02006110           JUNCTION     0.57     0.82     7.41     0  02:39        0.82
  WS02006111           JUNCTION     0.14     0.25     6.96     0  02:14        0.25
  WS02006112           JUNCTION     0.65     0.93     6.82     0  02:40        0.93
  WS02006113           JUNCTION     0.21     0.39     7.29     0  03:26        0.39
  WS02006115           JUNCTION     0.39     0.65     6.78     0  02:40        0.65
  WS02006116           JUNCTION     0.47     0.73     6.77     0  02:40        0.73
  WS02006228           JUNCTION     0.54     0.85     7.50     0  02:09        0.84
  WS02006229           JUNCTION     0.51     0.90     7.60     0  02:09        0.82
  WS02006230           JUNCTION     0.49     0.86     7.60     0  02:25        0.86
  WS02006231           JUNCTION     0.29     0.60     7.72     0  02:40        0.60
  WS02006232           JUNCTION     0.41     0.75     7.79     0  02:22        0.75
  WS02006234           JUNCTION     0.33     0.71     7.87     0  02:24        0.71
  WS02006235           JUNCTION     0.36     0.76     7.93     0  02:49        0.76
  WS02006238           JUNCTION     0.39     0.81     7.95     0  02:23        0.80
  WS02006239           JUNCTION     0.36     0.81     8.02     0  03:03        0.80
  WS02006240           JUNCTION     0.35     0.79     8.08     0  02:43        0.79
  WS02006242           JUNCTION     0.42     0.91     8.17     0  02:15        0.90
  WS02006243           JUNCTION     0.36     0.84     8.26     0  02:26        0.84
  WS02006245           JUNCTION     0.36     0.86     8.34     0  02:43        0.85
  WS02006247           JUNCTION     0.38     0.89     8.39     0  02:23        0.89
  WS02006248           JUNCTION     0.36     0.86     8.45     0  02:43        0.85
  WS02006249           JUNCTION     0.38     0.95     8.54     0  02:17        0.95
  WS02006251           JUNCTION     0.38     0.91     8.58     0  02:43        0.91
  WS02006252           JUNCTION     0.27     1.50     9.74     0  00:00        1.24
  WS02006256           JUNCTION     0.60     2.35     9.28     0  00:00        2.35
  WSF200               JUNCTION     0.12     0.25     5.48     0  02:44        0.25
  YS02001580           JUNCTION     0.07     1.05     9.59     0  02:18        0.77
  YS02001583           JUNCTION     0.09     1.10     9.59     0  02:18        0.82
  YS02001586           JUNCTION     0.17     1.13     9.30     0  02:18        1.13
  YS02001590           JUNCTION     0.27     1.40     9.26     0  02:43        1.40
  YS02001593           JUNCTION     0.20     1.33     9.19     0  02:18        1.28
  YS02001596           JUNCTION     0.39     1.68     9.10     0  02:18        1.65
  YS02001600           JUNCTION     0.61     1.87     9.00     0  02:18        1.87
  YS02001601           JUNCTION     0.86     2.06     8.90     0  02:15        2.06
  YS02001602           JUNCTION     0.77     1.87     8.77     0  02:20        1.87
  YS02001605           JUNCTION     0.74     1.78     8.68     0  02:22        1.77
  YS02001607           JUNCTION     0.74     1.68     8.53     0  02:43        1.68
  YS02001610           JUNCTION     0.78     1.68     8.48     0  02:21        1.68
  YS02001613           JUNCTION     0.74     1.66     8.50     0  02:24        1.66
  YS02001616           JUNCTION     0.67     1.61     8.52     0  02:43        1.61
  YS02001619           JUNCTION     0.65     1.61     8.54     0  02:43        1.61
  YS02001622           JUNCTION     0.66     1.62     8.52     0  02:43        1.62
  YS02001625           JUNCTION     0.91     1.78     8.38     0  02:21        1.78
  YS02001629           JUNCTION     0.92     1.85     8.40     0  02:22        1.85
  YS02001633           JUNCTION     1.00     2.08     8.53     0  02:43        2.08
  YS02001641           JUNCTION     0.98     2.10     8.54     0  02:43        2.10
  YS02001644           JUNCTION     0.98     1.92     8.35     0  02:23        1.92
  YS02001647           JUNCTION     0.79     1.90     8.51     0  02:43        1.90
  YS02001649           JUNCTION     0.93     1.91     8.30     0  02:24        1.87
  YS02001652           JUNCTION     0.76     1.75     8.34     0  02:24        1.68
  YS02001655           JUNCTION     0.58     1.58     8.43     0  02:23        1.46
  YS02001658           JUNCTION     0.39     1.45     8.60     0  02:23        1.20
  YS02001661           JUNCTION     0.24     1.07     8.47     0  02:24        0.98
  YS02001664           JUNCTION     0.06     0.51     8.43     0  02:24        0.43
  YS02001745           JUNCTION     0.14     0.69     8.21     0  02:24        0.66
  YS02001748           JUNCTION     0.42     1.33     8.40     0  02:23        1.10
  YS02001751           JUNCTION     0.55     1.40     8.28     0  02:23        1.29
  YS02001754           JUNCTION     0.73     1.61     8.22     0  02:24        1.55
  YS02001757           JUNCTION     1.00     1.93     8.19     0  02:43        1.93
  YS02001759           JUNCTION     0.92     2.21     8.57     0  02:43        2.21
  YS02001762           JUNCTION     0.90     2.15     8.55     0  02:43        2.15
  YS02001765           JUNCTION     0.86     2.00     8.45     0  02:43        2.00
  YS02001767           JUNCTION     0.84     1.89     8.38     0  02:43        1.89
  YS02001770           JUNCTION     0.84     1.92     8.41     0  02:24        1.92
  YS02001774           JUNCTION     0.90     1.98     8.40     0  02:24        1.98
  YS02001779           JUNCTION     0.67     1.68     8.37     0  02:22        1.68
  YS02001783           JUNCTION     0.46     1.50     7.64     0  02:22        1.49
  YS02001784           JUNCTION     0.50     1.45     7.52     0  02:22        1.43
  YS02001786           JUNCTION     0.50     1.31     7.34     0  02:22        1.27
  YS02001788           JUNCTION     0.51     1.18     7.15     0  02:22        1.13
  YS02001790           JUNCTION     0.73     1.33     6.98     0  02:22        1.29
  YS02001791           JUNCTION     0.82     2.51     7.98     0  02:07        1.34
  YS02001793           JUNCTION     1.26     2.16     6.99     0  02:07        1.93
  YS02001882           JUNCTION     0.28     1.65     8.36     0  02:22        1.64
  YS02001884           JUNCTION     0.37     1.74     8.35     0  02:22        1.74
  YS02001887           JUNCTION     0.45     1.81     8.35     0  02:24        1.81
  YS02001890           JUNCTION     0.48     1.81     8.32     0  02:21        1.81
  YS02001895           JUNCTION     0.26     1.57     8.32     0  02:21        1.56
  YS02001898           JUNCTION     0.26     1.58     8.32     0  02:21        1.56
  YS02001901           JUNCTION     0.37     1.70     8.31     0  02:21        1.67
  YS02001904           JUNCTION     0.35     1.66     8.29     0  02:21        1.63
  YS02001907           JUNCTION     0.67     1.96     8.25     0  02:21        1.96
  YS02001910           JUNCTION     0.47     1.96     8.47     0  02:22        1.81
  YS02001915           JUNCTION     0.28     1.90     8.62     0  02:22        1.65
  YS02001918           JUNCTION     0.14     1.81     8.88     0  02:22        1.35
  YS02001920           JUNCTION     0.22     2.14     9.15     0  02:22        1.43
  YS02001923           JUNCTION     0.10     2.03     9.29     0  02:22        1.20
  YS02001926           JUNCTION     0.14     1.90     9.35     0  02:22        1.00
  YS02001929           JUNCTION     0.07     1.78     9.47     0  02:22        0.74
  YS02006553           JUNCTION     0.67     1.98     8.26     0  02:21        1.97
  YS02006556           JUNCTION     0.64     1.96     8.27     0  02:24        1.96
  YS02006558           JUNCTION     0.68     2.02     8.29     0  02:24        2.02
  YS02006561           JUNCTION     0.16     1.11     7.77     0  02:24        1.11
  YS02163301           JUNCTION     0.94     2.03     8.55     0  02:43        2.03
  YS02163601           JUNCTION     1.04     2.08     8.48     0  02:43        2.08
  YS02164001           JUNCTION     0.97     2.10     8.56     0  02:43        2.10
  CC-1                 OUTFALL      0.00     0.00     0.00     0  00:00        0.00
  CC-2                 OUTFALL      0.00     0.00     0.00     0  00:00        0.00
  JK-1                 OUTFALL      0.00     0.00     0.00     0  00:00        0.00
  JK-2                 OUTFALL      0.00     0.00     0.00     0  00:00        0.00
  WSC                  OUTFALL      0.29     0.37     1.04     0  02:47        0.37
  CC-storage           STORAGE      1.57     2.19     7.69     0  07:51        2.19
  JK-storage           STORAGE      4.34     5.80     6.60     0  02:09        5.80
  XR-storage           STORAGE      0.28     5.00     3.00     0  00:00        4.91
  
  
  *******************
  Node Inflow Summary
  *******************
  
  -------------------------------------------------------------------------------------------------
                                  Maximum  Maximum                  Lateral       Total        Flow
                                  Lateral    Total  Time of Max      Inflow      Inflow     Balance
                                   Inflow   Inflow   Occurrence      Volume      Volume       Error
  Node                 Type           LPS      LPS  days hr:min    10^6 ltr    10^6 ltr     Percent
  -------------------------------------------------------------------------------------------------
  WS02001211           JUNCTION      7.35   389.13     0  03:39       0.212        11.1       0.348
  WS02001212           JUNCTION      0.00   390.85     0  03:41           0        11.1       0.207
  WS02001213           JUNCTION      0.00   392.61     0  03:40           0        11.1       0.238
  WS02003059           JUNCTION      0.00   395.64     0  03:40           0          11       0.328
  WS02003060           JUNCTION     16.53   816.13     0  02:44       0.476        14.4       0.149
  WS02003066           JUNCTION      0.00   411.93     0  02:43           0        2.97       0.040
  WS02003067           JUNCTION      0.00   411.91     0  02:43           0        2.97       0.135
  WS02003069           JUNCTION      0.32   816.40     0  02:44     0.00922        14.4       0.158
  WS02003072           JUNCTION      0.00   816.37     0  02:45           0        14.4       0.206
  WS02003073           JUNCTION      1.82   818.17     0  02:46      0.0524        14.4       0.221
  WS02004138           JUNCTION      0.00   380.00     0  00:00           0        10.9       0.059
  WS02004139           JUNCTION      0.32   395.52     0  00:00     0.00924        10.9       0.407
  WS02004401           JUNCTION      0.00   412.08     0  02:40           0        3.07       0.323
  WS02004402           JUNCTION      0.00   411.99     0  02:43           0        3.06       0.329
  WS02004403           JUNCTION      0.00   412.02     0  02:41           0        3.05       0.323
  WS02004404           JUNCTION      0.16   412.22     0  02:41     0.00467        3.04       0.270
  WS02004405           JUNCTION      0.04   412.24     0  02:43      0.0011        3.04       0.403
  WS02004406           JUNCTION      0.00   412.23     0  02:43           0        3.02       0.675
  WS02004407           JUNCTION      0.00   412.07     0  02:41           0           3       0.030
  WS02004409           JUNCTION      0.00   412.02     0  02:41           0           3       0.072
  WS02004410           JUNCTION      0.00   412.01     0  02:42           0           3       0.129
  WS02004411           JUNCTION      0.00   411.98     0  02:42           0           3       0.170
  WS02004412           JUNCTION      0.00   411.99     0  02:43           0        2.99       0.234
  WS02004413           JUNCTION      0.00   412.01     0  02:43           0        2.98       0.420
  WS02006109           JUNCTION      1.23   411.77     0  02:41      0.0354        3.11       0.201
  WS02006110           JUNCTION      0.00   411.77     0  02:41           0         3.1       0.200
  WS02006111           JUNCTION      0.00   424.20     0  03:26           0         3.1       0.028
  WS02006112           JUNCTION      0.00   413.98     0  02:14           0         3.1       0.564
  WS02006113           JUNCTION      0.00   411.94     0  02:35           0         3.1       0.043
  WS02006115           JUNCTION      0.00   412.28     0  03:27           0        3.08       0.201
  WS02006116           JUNCTION      0.00   412.10     0  02:40           0        3.07       0.145
  WS02006228           JUNCTION      0.00   410.54     0  02:41           0        3.08       0.080
  WS02006229           JUNCTION      0.00   410.54     0  02:41           0        3.08       0.176
  WS02006230           JUNCTION     10.28   410.65     0  02:25       0.296        3.09       0.220
  WS02006231           JUNCTION      0.00   400.39     0  02:24           0         2.8       0.123
  WS02006232           JUNCTION      0.00   400.37     0  02:24           0        2.82       0.635
  WS02006234           JUNCTION      0.00   401.83     0  02:43           0        2.81      -0.090
  WS02006235           JUNCTION      0.00   402.47     0  02:24           0        2.83       0.462
  WS02006238           JUNCTION      0.00   401.88     0  02:24           0        2.81      -0.328
  WS02006239           JUNCTION      0.00   401.67     0  02:24           0         2.8      -0.185
  WS02006240           JUNCTION      0.00   401.30     0  02:43           0         2.8       0.117
  WS02006242           JUNCTION      0.00   401.74     0  02:45           0         2.8       0.262
  WS02006243           JUNCTION      0.00   400.95     0  02:40           0         2.8       0.038
  WS02006245           JUNCTION      0.00   403.78     0  02:49           0        2.82       0.580
  WS02006247           JUNCTION      0.00   402.34     0  02:43           0        2.82       0.060
  WS02006248           JUNCTION      0.00   401.70     0  02:43           0        2.82       0.044
  WS02006249           JUNCTION      0.00   474.52     0  01:46           0        2.84       0.526
  WS02006251           JUNCTION      0.08   401.18     0  02:28     0.00222        2.84      -0.006
  WS02006252           JUNCTION      0.00   400.00     0  00:00           0        2.83      -0.095
  WS02006256           JUNCTION      0.00   300.00     0  00:00           0      0.0243      -5.370
  WSF200               JUNCTION      0.00   411.92     0  02:44           0        2.97       0.018
  YS02001580           JUNCTION      0.00    79.20     0  02:18           0     0.00391      -1.263
  YS02001583           JUNCTION      0.00   145.31     0  02:17           0      0.0152      -3.088
  YS02001586           JUNCTION    512.66   512.69     0  02:26        1.09         1.1       0.102
  YS02001590           JUNCTION      0.00   318.10     0  02:35           0        0.99       0.024
  YS02001593           JUNCTION      0.00   318.17     0  02:29           0       0.989       0.056
  YS02001596           JUNCTION      0.00   318.07     0  02:22           0       0.989       0.179
  YS02001600           JUNCTION      0.00   318.12     0  02:35           0       0.988       0.681
  YS02001601           JUNCTION    874.02  1191.37     0  02:25        1.47        2.45       0.365
  YS02001602           JUNCTION      0.00   501.34     0  02:17           0        1.81       0.518
  YS02001605           JUNCTION      0.00   501.79     0  02:17           0        1.73       0.810
  YS02001607           JUNCTION      0.00   501.18     0  02:17           0        1.72       1.143
  YS02001610           JUNCTION      0.00   499.76     0  02:16           0         1.7       1.260
  YS02001613           JUNCTION      0.00   498.74     0  02:16           0        1.48       1.477
  YS02001616           JUNCTION      0.00   501.29     0  02:16           0        1.46       1.291
  YS02001619           JUNCTION    887.93   935.17     0  02:21        1.68        3.11       0.592
  YS02001622           JUNCTION      0.00   933.13     0  02:21           0        3.09       0.839
  YS02001625           JUNCTION      0.00   974.25     0  02:27           0        3.08       1.472
  YS02001629           JUNCTION      0.00   931.14     0  02:21           0        2.63       0.789
  YS02001633           JUNCTION    676.46  1378.96     0  02:21        1.11        3.67       0.887
  YS02001641           JUNCTION      0.00  1380.27     0  02:21           0        3.58       0.588
  YS02001644           JUNCTION    580.16  1759.33     0  02:21       0.911        4.46       0.588
  YS02001647           JUNCTION      0.00  1759.20     0  02:21           0        4.39       0.636
  YS02001649           JUNCTION      0.00  1940.91     0  02:20           0        5.18       0.732
  YS02001652           JUNCTION      0.00   674.10     0  02:25           0       0.849       2.728
  YS02001655           JUNCTION      0.15   672.59     0  02:25     0.00443       0.872       2.311
  YS02001658           JUNCTION      0.00   670.44     0  02:25           0       0.906       1.288
  YS02001661           JUNCTION      0.00   789.13     0  02:25           0       0.899       0.482
  YS02001664           JUNCTION    592.82   592.82     0  02:25       0.864       0.864      -0.033
  YS02001745           JUNCTION    354.91   354.91     0  02:25       0.499       0.516       0.644
  YS02001748           JUNCTION      0.04   457.25     0  02:23      0.0013       0.544       2.044
  YS02001751           JUNCTION      0.01   367.73     0  02:25    0.000317       0.539       3.843
  YS02001754           JUNCTION      0.26   367.74     0  02:25     0.00749       0.518       4.671
  YS02001757           JUNCTION      0.00  3156.18     0  02:24           0        7.26       1.288
  YS02001759           JUNCTION    518.63  1218.65     0  02:25       0.728        1.68       1.361
  YS02001762           JUNCTION      0.00   707.39     0  02:25           0       0.974       2.203
  YS02001765           JUNCTION      0.00   708.05     0  02:25           0       0.997       2.462
  YS02001767           JUNCTION      0.54   707.56     0  02:25      0.0154        1.03       3.551
  YS02001770           JUNCTION    710.37   710.37     0  02:25        1.08        1.11       2.927
  YS02001774           JUNCTION      0.00   347.38     0  02:22           0      0.0845      41.958
  YS02001779           JUNCTION      0.01   362.10     0  02:22    0.000144      0.0354      64.435
  YS02001783           JUNCTION      0.00   975.35     0  02:24           0        2.83       0.253
  YS02001784           JUNCTION      1.06   977.12     0  02:24      0.0305        2.85       0.360
  YS02001786           JUNCTION      0.06   978.01     0  02:24     0.00162        2.84       0.473
  YS02001788           JUNCTION      0.07   978.14     0  02:24     0.00204        2.83       0.482
  YS02001790           JUNCTION      0.15   977.44     0  02:24     0.00446        2.82       0.603
  YS02001791           JUNCTION      0.00   978.15     0  02:24           0         2.8       0.520
  YS02001793           JUNCTION      0.00   979.25     0  02:24           0        2.79       0.594
  YS02001882           JUNCTION      0.00    37.77     0  02:19           0      0.0124       5.609
  YS02001884           JUNCTION      0.00    78.66     0  02:19           0      0.0481       5.465
  YS02001887           JUNCTION    547.71   548.57     0  02:25       0.759       0.793       0.556
  YS02001890           JUNCTION      0.00   547.13     0  02:25           0       0.752       0.683
  YS02001895           JUNCTION      0.00   510.35     0  02:25           0       0.742       0.192
  YS02001898           JUNCTION      0.00   511.07     0  02:25           0       0.741       0.039
  YS02001901           JUNCTION      0.00   510.62     0  02:25           0       0.743       0.438
  YS02001904           JUNCTION      0.00   511.18     0  02:25           0       0.747       0.382
  YS02001907           JUNCTION      0.00  1400.92     0  02:23           0        2.28       0.801
  YS02001910           JUNCTION      0.00   932.68     0  02:23           0        1.54       0.466
  YS02001915           JUNCTION    585.37   931.82     0  02:23       0.929        1.58       0.088
  YS02001918           JUNCTION      0.00   441.27     0  02:23           0       0.677       0.052
  YS02001920           JUNCTION      2.87   439.38     0  02:23      0.0827        0.66       0.130
  YS02001923           JUNCTION      0.04   406.57     0  02:22     0.00109        0.56      -0.203
  YS02001926           JUNCTION      0.05   668.87     0  02:22      0.0015       0.539      -0.256
  YS02001929           JUNCTION    301.46   364.47     0  02:22       0.523       0.525      -0.190
  YS02006553           JUNCTION      0.00   678.38     0  02:34           0        1.82       0.654
  YS02006556           JUNCTION      0.00   678.26     0  02:34           0        1.83       0.441
  YS02006558           JUNCTION    709.06   977.72     0  02:24        1.05        2.85       0.125
  YS02006561           JUNCTION      0.00   975.84     0  02:24           0        2.82      -0.008
  YS02163301           JUNCTION      0.00   933.47     0  02:21           0         2.6       0.930
  YS02163601           JUNCTION      0.11  1380.04     0  02:21     0.00317        3.62       0.840
  YS02164001           JUNCTION      0.00  1381.65     0  02:21           0        3.59       0.554
  CC-1                 OUTFALL       0.00   683.00     0  00:00           0       0.208       0.000
  CC-2                 OUTFALL       0.00   683.00     0  00:00           0       0.208       0.000
  JK-1                 OUTFALL       0.00  1000.00     0  00:00           0      0.0791       0.000
  JK-2                 OUTFALL       0.00  1000.00     0  00:00           0      0.0791       0.000
  WSC                  OUTFALL       0.00   818.15     0  02:47           0        14.4       0.000
  CC-storage           STORAGE       0.00  3156.43     0  02:24           0        9.36       0.451
  JK-storage           STORAGE       0.00   978.07     0  02:24           0        2.92       0.564
  XR-storage           STORAGE     200.00   200.00     0  00:00        5.76        6.36     -41.886
  
  
  **********************
  Node Surcharge Summary
  **********************
  
  Surcharging occurs when water rises above the top of the highest conduit.
  ---------------------------------------------------------------------
                                               Max. Height   Min. Depth
                                   Hours       Above Crown    Below Rim
  Node                 Type      Surcharged         Meters       Meters
  ---------------------------------------------------------------------
  WS02006109           JUNCTION        1.30          0.020        1.800
  WS02006228           JUNCTION        1.29          0.016        2.184
  WS02006229           JUNCTION        1.32          0.103        2.347
  WS02006232           JUNCTION        1.44          0.051        1.429
  WS02006235           JUNCTION        1.32          0.055        1.235
  WS02006238           JUNCTION        1.38          0.088        1.342
  WS02006239           JUNCTION        1.33          0.067        1.223
  WS02006240           JUNCTION        1.34          0.081        1.309
  WS02006242           JUNCTION        1.50          0.176        0.644
  WS02006243           JUNCTION        1.37          0.134        0.636
  WS02006245           JUNCTION        1.38          0.147        0.703
  WS02006247           JUNCTION        1.41          0.183        0.577
  WS02006248           JUNCTION        1.37          0.141        0.239
  WS02006249           JUNCTION        1.40          0.247        0.143
  WS02006252           JUNCTION        1.93          1.100        0.000
  WS02006256           JUNCTION        3.07          2.050        0.000
  YS02001580           JUNCTION        0.37          0.450        0.000
  YS02001583           JUNCTION        0.37          0.457        0.043
  YS02001586           JUNCTION        0.50          0.510        0.000
  YS02001590           JUNCTION        0.58          0.750        0.000
  YS02001593           JUNCTION        0.58          0.705        0.135
  YS02001596           JUNCTION        0.71          0.949        0.121
  YS02001600           JUNCTION        0.96          1.190        0.000
  YS02001601           JUNCTION        6.05          1.440        0.000
  YS02001602           JUNCTION        5.98          1.270        0.000
  YS02001605           JUNCTION        5.95          1.175        0.005
  YS02001607           JUNCTION        0.68          0.680        0.000
  YS02001610           JUNCTION        0.75          0.680        0.000
  YS02001613           JUNCTION        0.68          0.658        0.042
  YS02001616           JUNCTION        0.60          0.610        0.000
  YS02001619           JUNCTION        0.59          0.610        0.000
  YS02001622           JUNCTION        0.60          0.620        0.000
  YS02001625           JUNCTION        5.76          0.780        0.000
  YS02001629           JUNCTION        0.54          0.470        0.000
  YS02001633           JUNCTION        5.77          1.060        0.000
  YS02001641           JUNCTION        5.73          1.100        0.000
  YS02001644           JUNCTION        5.72          0.920        0.000
  YS02001647           JUNCTION        5.65          0.900        0.000
  YS02001649           JUNCTION        5.65          0.909        0.141
  YS02001652           JUNCTION        5.54          0.716        0.414
  YS02001655           JUNCTION        0.27          0.576        0.624
  YS02001658           JUNCTION        0.08          0.454        0.846
  YS02001748           JUNCTION        0.02          0.247        0.943
  YS02001751           JUNCTION        0.14          0.399        0.801
  YS02001754           JUNCTION        4.98          0.562        0.588
  YS02001757           JUNCTION        5.65          0.932        0.278
  YS02001759           JUNCTION        5.65          1.210        0.000
  YS02001762           JUNCTION        5.64          1.150        0.000
  YS02001765           JUNCTION        5.64          0.999        0.101
  YS02001767           JUNCTION        5.64          0.891        0.139
  YS02001770           JUNCTION        5.64          0.887        0.033
  YS02001774           JUNCTION        5.64          0.979        0.071
  YS02001779           JUNCTION        2.87          0.680        0.000
  YS02001783           JUNCTION        0.54          0.697        0.903
  YS02001784           JUNCTION        0.57          0.651        0.839
  YS02001786           JUNCTION        0.55          0.506        0.924
  YS02001788           JUNCTION        0.55          0.376        1.104
  YS02001790           JUNCTION        5.86          0.531        0.626
  YS02001791           JUNCTION        5.87          1.714        0.206
  YS02001793           JUNCTION        5.90          1.163        1.437
  YS02001882           JUNCTION        0.33          0.645        0.185
  YS02001884           JUNCTION        0.34          0.677        0.193
  YS02001887           JUNCTION        0.36          0.759        0.191
  YS02001890           JUNCTION        0.37          0.760        0.000
  YS02001895           JUNCTION        0.31          0.571        0.179
  YS02001898           JUNCTION        0.31          0.555        0.185
  YS02001901           JUNCTION        0.35          0.697        0.173
  YS02001904           JUNCTION        0.34          0.655        0.195
  YS02001907           JUNCTION        0.55          0.950        0.000
  YS02001910           JUNCTION        0.39          0.958        0.142
  YS02001915           JUNCTION        0.32          0.901        0.099
  YS02001918           JUNCTION        0.24          0.810        0.000
  YS02001920           JUNCTION        0.26          1.140        0.000
  YS02001923           JUNCTION        0.01          0.820        0.000
  YS02001926           JUNCTION        0.01          0.900        0.000
  YS02001929           JUNCTION        0.01          0.780        0.000
  YS02006553           JUNCTION        0.57          0.977        0.213
  YS02006556           JUNCTION        0.48          0.921        0.429
  YS02006558           JUNCTION        0.47          0.922        0.478
  YS02006561           JUNCTION        0.28          0.311        0.839
  YS02163301           JUNCTION        5.76          1.030        0.000
  YS02163601           JUNCTION        5.78          1.080        0.000
  YS02164001           JUNCTION        5.74          1.100        0.000
  
  
  *********************
  Node Flooding Summary
  *********************
  
  Flooding refers to all water that overflows a node, whether it ponds or not.
  --------------------------------------------------------------------------
                                                             Total   Maximum
                                 Maximum   Time of Max       Flood    Ponded
                        Hours       Rate    Occurrence      Volume     Depth
  Node                 Flooded       LPS   days hr:min    10^6 ltr    Meters
  --------------------------------------------------------------------------
  WS02006252              0.01    245.63      0  00:00       0.000     0.000
  WS02006256              0.02    293.19      0  00:00       0.005     0.000
  YS02001580              0.01     19.33      0  02:18       0.000     0.000
  YS02001586              0.26    195.18      0  02:26       0.096     0.000
  YS02001590              0.01      0.43      0  02:43       0.000     0.000
  YS02001600              0.01      1.89      0  02:18       0.000     0.000
  YS02001601              0.43    793.58      0  02:25       0.638     0.000
  YS02001602              0.36     61.99      0  02:29       0.068     0.000
  YS02001607              0.01      0.88      0  02:43       0.000     0.000
  YS02001610              0.29    372.45      0  02:26       0.212     0.000
  YS02001616              0.01      0.42      0  02:43       0.000     0.000
  YS02001619              0.01      1.78      0  02:43       0.000     0.000
  YS02001622              0.01      1.32      0  02:43       0.000     0.000
  YS02001625              0.27    973.75      0  02:27       0.434     0.000
  YS02001629              0.05     94.84      0  02:24       0.010     0.000
  YS02001633              0.01      1.59      0  02:43       0.000     0.000
  YS02001641              0.01      2.13      0  02:43       0.000     0.000
  YS02001644              0.06    324.92      0  02:25       0.038     0.000
  YS02001647              0.01      0.85      0  02:43       0.000     0.000
  YS02001759              0.01      0.76      0  02:43       0.000     0.000
  YS02001762              0.01      0.89      0  02:43       0.000     0.000
  YS02001779              0.02    311.32      0  02:22       0.002     0.000
  YS02001890              0.06     43.38      0  02:25       0.005     0.000
  YS02001907              0.19   1099.21      0  02:26       0.446     0.000
  YS02001918              0.01    147.26      0  02:22       0.001     0.000
  YS02001920              0.01     27.62      0  02:22       0.000     0.000
  YS02001923              0.01    126.27      0  02:22       0.000     0.000
  YS02001926              0.01    109.01      0  02:22       0.001     0.000
  YS02001929              0.01    186.97      0  02:22       0.001     0.000
  YS02163301              0.01      1.64      0  02:43       0.000     0.000
  YS02163601              0.01      1.43      0  02:43       0.000     0.000
  YS02164001              0.01      3.24      0  02:43       0.000     0.000
  JK-storage              5.85    977.89      0  02:24       2.432     0.000
  
  
  **********************
  Storage Volume Summary
  **********************
  
  ------------------------------------------------------------------------------------------------
                         Average    Avg   Evap  Exfil     Maximum    Max    Time of Max    Maximum
                          Volume   Pcnt   Pcnt   Pcnt      Volume   Pcnt     Occurrence    Outflow
  Storage Unit           1000 m³   Full   Loss   Loss     1000 m³   Full    days hr:min        LPS
  ------------------------------------------------------------------------------------------------
  CC-storage               4.372   68.2    0.0    0.0       6.116   95.4       0  07:51    1783.53
  JK-storage               0.218   74.9    0.0    0.0       0.291  100.0       0  02:09    2300.00
  XR-storage               0.034    2.4    0.0    0.0       0.600   41.7       0  00:00     380.00
  
  
  ***********************
  Outfall Loading Summary
  ***********************
  
  -----------------------------------------------------------
                         Flow       Avg       Max       Total
                         Freq      Flow      Flow      Volume
  Outfall Node           Pcnt       LPS       LPS    10^6 ltr
  -----------------------------------------------------------
  CC-1                   1.24    683.00    683.00       0.208
  CC-2                   1.24    683.00    683.00       0.208
  JK-1                   1.16    347.46   1000.00       0.079
  JK-2                   1.16    347.46   1000.00       0.079
  WSC                   99.93    549.03    818.15      14.389
  -----------------------------------------------------------
  System                20.95   2609.95   3366.35      14.963
  
  
  ********************
  Link Flow Summary
  ********************
  
  -----------------------------------------------------------------------------
                                 Maximum  Time of Max   Maximum    Max/    Max/
                                  |Flow|   Occurrence   |Veloc|    Full    Full
  Link                 Type          LPS  days hr:min     m/sec    Flow   Depth
  -----------------------------------------------------------------------------
  1                    CONDUIT    818.15     0  02:47      3.15    0.28    0.37
  WS02001211WS02001212 CONDUIT    390.85     0  03:41      0.78    0.30    0.64
  WS02001212WS02001213 CONDUIT    392.61     0  03:40      1.32    0.61    0.45
  WS02001213WS02003059 CONDUIT    395.64     0  03:40      0.85    0.65    0.75
  WS02003059WS02003060 CONDUIT    399.95     0  03:40      0.95    0.26    0.63
  WS02003060WS02003069 CONDUIT    816.08     0  02:44      1.80    0.32    0.42
  WS02003066WSF200     CONDUIT    411.92     0  02:44      2.69    0.07    0.19
  WS02003067WS02003066 CONDUIT    411.93     0  02:43      1.04    0.13    0.38
  WS02003069WS02003072 CONDUIT    816.37     0  02:45      1.55    0.39    0.47
  WS02003072WS02003073 CONDUIT    816.35     0  02:46      1.64    1.76    0.45
  WS02004138WS02004139 CONDUIT    395.20     0  00:00      3.65    0.08    0.43
  WS02004139WS02001211 CONDUIT    381.79     0  03:39      0.91    0.48    0.59
  WS02004401WS02004402 CONDUIT    411.99     0  02:43      0.99    0.49    0.77
  WS02004402WS02004403 CONDUIT    412.02     0  02:41      0.99    0.59    0.79
  WS02004403WS02004404 CONDUIT    412.06     0  02:41      0.93    0.30    0.84
  WS02004404WS02004405 CONDUIT    412.20     0  02:43      1.10    4.04    0.88
  WS02004405WS02004406 CONDUIT    412.23     0  02:43      1.03    0.81    0.88
  WS02004406WS02004407 CONDUIT    412.07     0  02:41      0.89    0.18    0.57
  WS02004407WS02004409 CONDUIT    412.02     0  02:41      1.41    0.15    0.42
  WS02004409WS02004410 CONDUIT    412.01     0  02:42      0.92    0.53    0.58
  WS02004410WS02004411 CONDUIT    411.98     0  02:42      0.86    0.56    0.60
  WS02004411WS02004412 CONDUIT    411.99     0  02:43      0.81    0.59    0.61
  WS02004412WS02004413 CONDUIT    412.01     0  02:43      0.70    0.28    0.70
  WS02004413WS02003067 CONDUIT    411.91     0  02:43      0.96    0.18    0.54
  WS02006109WS02006110 CONDUIT    411.77     0  02:41      0.84    0.79    0.94
  WS02006110WS02006113 CONDUIT    411.94     0  02:35      1.03    0.37    0.75
  WS02006111WS02006112 CONDUIT    413.98     0  02:14      1.83    0.20    0.65
  WS02006112WS02006115 CONDUIT    412.28     0  03:27      0.71    0.24    0.78
  WS02006113WS02006111 CONDUIT    424.20     0  03:26      2.25    0.51    0.40
  WS02006115WS02006116 CONDUIT    412.10     0  02:40      0.98    0.53    0.66
  WS02006116WS02004401 CONDUIT    412.08     0  02:40      1.00    0.57    0.74
  WS02006228WS02006109 CONDUIT    410.54     0  02:41      1.06    1.79    1.00
  WS02006229WS02006228 CONDUIT    410.54     0  02:41      1.13    1.36    1.00
  WS02006230WS02006229 CONDUIT    410.54     0  02:41      1.22    9.14    1.00
  WS02006231WS02006230 CONDUIT    400.37     0  02:25      1.37    6.07    0.77
  WS02006232WS02006231 CONDUIT    400.39     0  02:24      1.08    0.84    0.92
  WS02006234WS02006232 CONDUIT    400.37     0  02:24      1.40    0.81    1.00
  WS02006235WS02006234 CONDUIT    401.83     0  02:43      1.30    4.24    0.99
  WS02006238WS02006235 CONDUIT    402.47     0  02:24      1.48    0.90    1.00
  WS02006239WS02006238 CONDUIT    401.88     0  02:24      1.21    1.29    1.00
  WS02006240WS02006239 CONDUIT    401.67     0  02:24      1.30    1.26    1.00
  WS02006242WS02006240 CONDUIT    401.30     0  02:43      1.17    1.59    1.00
  WS02006243WS02006242 CONDUIT    401.74     0  02:45      1.43    0.86    1.00
  WS02006245WS02006243 CONDUIT    400.95     0  02:40      1.45    1.19    1.00
  WS02006247WS02006245 CONDUIT    403.78     0  02:49      1.43    3.20    1.00
  WS02006248WS02006247 CONDUIT    402.34     0  02:43      1.46    0.88    1.00
  WS02006249WS02006248 CONDUIT    401.70     0  02:43      1.40    2.20    1.00
  WS02006251WS02006249 CONDUIT    474.52     0  01:46      1.99    1.37    1.00
  WS02006252WS02006251 CONDUIT    401.11     0  02:28     27.01    1.47    1.00
  WS02006256WS02006235 CONDUIT    288.91     0  00:00      4.23    3.06    1.00
  WSF200WS02003060     CONDUIT    411.94     0  02:44      1.43    0.09    0.30
  YS02001580YS02001583 CONDUIT     79.20     0  02:18      0.57    0.31    1.00
  YS02001583YS02001586 CONDUIT    145.31     0  02:17      0.60    0.22    1.00
  YS02001586YS02001590 CONDUIT    318.10     0  02:35      1.26    0.56    1.00
  YS02001590YS02001593 CONDUIT    318.17     0  02:29      1.13    2.00    1.00
  YS02001593YS02001596 CONDUIT    318.07     0  02:22      1.63    0.50    1.00
  YS02001596YS02001600 CONDUIT    318.12     0  02:35      1.13    0.62    1.00
  YS02001600YS02001601 CONDUIT    318.00     0  02:35      1.12    0.55    1.00
  YS02001601YS02001602 CONDUIT    501.34     0  02:17      1.77    1.81    1.00
  YS02001602YS02001605 CONDUIT    501.79     0  02:17      1.77   10.62    1.00
  YS02001605YS02001607 CONDUIT    501.18     0  02:17      1.77    2.75    1.00
  YS02001607YS02001610 CONDUIT    499.76     0  02:16      0.64    0.48    1.00
  YS02001610YS02001613 CONDUIT    498.74     0  02:16      0.64    0.58    1.00
  YS02001613YS02001616 CONDUIT    501.29     0  02:16      0.64    0.43    1.00
  YS02001616YS02001619 CONDUIT    491.41     0  02:17      0.65    0.85    1.00
  YS02001619YS02001622 CONDUIT    933.13     0  02:21      1.19    1.38    1.00
  YS02001622YS02001625 CONDUIT    932.11     0  02:21      1.19    0.50    1.00
  YS02001625YS02001629 CONDUIT    931.14     0  02:21      1.19    0.44    1.00
  YS02001629YS02163301 CONDUIT    933.47     0  02:21      1.19    1.15    1.00
  YS02001633YS02163601 CONDUIT   1379.93     0  02:21      1.76    1.45    1.00
  YS02001641YS02001644 CONDUIT   1379.82     0  02:21      1.76    4.46    1.00
  YS02001644YS02001647 CONDUIT   1759.20     0  02:21      2.25    1.03    1.00
  YS02001647YS02001649 CONDUIT   1736.04     0  02:21      2.32    0.92    1.00
  YS02001649YS02001757 CONDUIT   1924.10     0  02:20      2.49    1.17    1.00
  YS02001652YS02001649 CONDUIT    676.56     0  02:25      0.86    0.34    1.00
  YS02001655YS02001652 CONDUIT    674.10     0  02:25      1.25    0.33    1.00
  YS02001658YS02001655 CONDUIT    672.44     0  02:25      1.87    0.29    1.00
  YS02001661YS02001658 CONDUIT    670.44     0  02:25      2.28    0.26    1.00
  YS02001664YS02001661 CONDUIT    789.13     0  02:25      2.25    0.25    0.73
  YS02001745YS02001748 CONDUIT    457.21     0  02:23      2.08    0.18    0.84
  YS02001748YS02001751 CONDUIT    367.72     0  02:25      1.64    0.19    1.00
  YS02001751YS02001754 CONDUIT    367.48     0  02:25      1.36    0.18    1.00
  YS02001754YS02001757 CONDUIT    369.11     0  02:25      0.47    0.15    1.00
  YS02001757CaochengTiaoxuchi CONDUIT   3156.43     0  02:24      4.02    1.37    1.00
  YS02001759YS02001757 CONDUIT   1219.58     0  02:25      1.55    0.87    1.00
  YS02001762YS02001759 CONDUIT    706.68     0  02:25      0.90    0.81    1.00
  YS02001765YS02001762 CONDUIT    707.39     0  02:25      0.90    0.66    1.00
  YS02001767YS02001765 CONDUIT    708.05     0  02:25      0.90    0.89    1.00
  YS02001770YS02001767 CONDUIT    707.02     0  02:25      0.90    2.80    1.00
  YS02001774YS02001770 CONDUIT    347.38     0  02:22      0.44    0.22    1.00
  YS02001779YS02001774 CONDUIT    362.09     0  02:22      0.47    0.18    1.00
  YS02001783YS02001784 CONDUIT    976.06     0  02:24      1.94    1.35    1.00
  YS02001784YS02001785 CONDUIT    977.95     0  02:24      1.95    2.28    1.00
  YS02001786YS02001788 CONDUIT    978.07     0  02:24      1.95    1.88    1.00
  YS02001788YS02001790 CONDUIT    977.29     0  02:24      1.94    0.72    1.00
  YS02001790YS02001791 CONDUIT    978.15     0  02:24      2.24    1.06    1.00
  YS02001791YS02001793 CONDUIT    979.25     0  02:24      4.26    0.42    1.00
  YS02001793JiankangQianchi CONDUIT    978.07     0  02:24      1.54    0.08    1.00
  YS02001882YS02001884 CONDUIT     37.77     0  02:19      0.11    0.04    1.00
  YS02001884YS02001887 CONDUIT     78.66     0  02:19      0.10    0.10    1.00
  YS02001887YS02001890 CONDUIT    547.13     0  02:25      0.70    0.94    1.00
  YS02001890YS02001895 CONDUIT    510.35     0  02:25      0.65    0.24    1.00
  YS02001895YS02001898 CONDUIT    511.07     0  02:25      0.65    0.89    1.00
  YS02001898YS02001901 CONDUIT    510.62     0  02:25      0.65    0.33    1.00
  YS02001901YS02001904 CONDUIT    511.18     0  02:25      0.65    0.79    1.00
  YS02001904YS02001907 CONDUIT    510.86     0  02:25      0.65    0.18    1.00
  YS02001907YS02006553 CONDUIT    678.38     0  02:34      0.75    0.80    1.00
  YS02001910YS02001907 CONDUIT    933.91     0  02:23      1.19    0.53    1.00
  YS02001915YS02001910 CONDUIT    932.68     0  02:23      1.19    0.46    1.00
  YS02001918YS02001915 CONDUIT    443.56     0  02:23      0.56    0.24    1.00
  YS02001920YS02001918 CONDUIT    441.27     0  02:23      0.64    0.43    1.00
  YS02001923YS02001920 CONDUIT    436.51     0  02:23      0.70    0.20    1.00
  YS02001926YS02001923 CONDUIT    429.67     0  02:22      0.94    0.61    1.00
  YS02001929YS02001926 CONDUIT    402.08     0  02:22      1.10    0.19    1.00
  YS02006553YS02006556 CONDUIT    678.26     0  02:34      0.86    0.58    1.00
  YS02006556YS02006558 CONDUIT    680.63     0  02:34      0.87    0.54    1.00
  YS02006558YS02006561 CONDUIT    975.84     0  02:24      3.45    2.16    1.00
  YS02006561YS02001783 CONDUIT    975.35     0  02:24      1.94    0.51    1.00
  YS02163301YS02001633 CONDUIT    935.90     0  02:21      1.19    0.88    1.00
  YS02163601YS02164001 CONDUIT   1381.65     0  02:21      1.76    1.22    1.00
  YS02164001YS02001641 CONDUIT   1380.27     0  02:21      1.76    1.88    1.00
  CC-R1                PUMP       683.00     0  00:00              1.00
  CC-R2                PUMP       683.00     0  00:00              1.00
  CC-S1                PUMP       200.00     0  00:00              1.00
  CC-S2                PUMP       200.00     0  00:00              1.00
  JK-R1                PUMP      1000.00     0  00:00              1.00
  JK-R2                PUMP      1000.00     0  00:00              1.00
  JK-S                 PUMP       300.00     0  00:00              1.00
  XR-1                 PUMP        95.00     0  00:00              1.00
  XR-2                 PUMP        95.00     0  00:00              1.00
  XR-3                 PUMP        95.00     0  00:00              1.00
  XR-4                 PUMP        95.00     0  00:00              1.00
  
  
  ***************************
  Flow Classification Summary
  ***************************
  
  -------------------------------------------------------------------------------------
                      Adjusted    ---------- Fraction of Time in Flow Class ---------- 
                       /Actual         Up    Down  Sub   Sup   Up    Down  Norm  Inlet 
  Conduit               Length    Dry  Dry   Dry   Crit  Crit  Crit  Crit  Ltd   Ctrl  
  -------------------------------------------------------------------------------------
  1                       1.00   0.00  0.00  0.00  0.00  1.00  0.00  0.00  0.20  0.00
  WS02001211WS02001212    1.00   0.00  0.00  0.00  1.00  0.00  0.00  0.00  0.00  0.00
  WS02001212WS02001213    1.00   0.00  0.00  0.00  0.36  0.00  0.64  0.00  0.00  0.00
  WS02001213WS02003059    1.00   0.00  0.00  0.00  0.99  0.00  0.00  0.00  0.00  0.00
  WS02003059WS02003060    1.00   0.00  0.00  0.00  1.00  0.00  0.00  0.00  0.00  0.00
  WS02003060WS02003069    1.00   0.00  0.00  0.00  0.99  0.01  0.00  0.00  0.00  0.00
  WS02003066WSF200        1.00   0.02  0.10  0.00  0.00  0.88  0.00  0.00  0.87  0.00
  WS02003067WS02003066    1.00   0.10  0.02  0.00  0.89  0.00  0.00  0.00  0.00  0.00
  WS02003069WS02003072    1.00   0.00  0.00  0.00  0.99  0.01  0.00  0.00  0.00  0.00
  WS02003072WS02003073    1.00   0.00  0.00  0.00  0.00  0.00  0.00  1.00  0.00  0.00
  WS02004138WS02004139    1.00   0.00  0.00  0.00  0.99  0.01  0.00  0.00  1.00  0.00
  WS02004139WS02001211    1.00   0.00  0.00  0.00  1.00  0.00  0.00  0.00  0.00  0.00
  WS02004401WS02004402    1.00   0.02  0.00  0.00  0.98  0.00  0.00  0.00  0.00  0.00
  WS02004402WS02004403    1.00   0.02  0.00  0.00  0.98  0.00  0.00  0.00  0.00  0.00
  WS02004403WS02004404    1.00   0.00  0.03  0.00  0.97  0.00  0.00  0.00  0.00  0.00
  WS02004404WS02004405    1.00   0.00  0.00  0.00  1.00  0.00  0.00  0.00  0.00  0.00
  WS02004405WS02004406    1.00   0.00  0.00  0.00  1.00  0.00  0.00  0.00  0.00  0.00
  WS02004406WS02004407    1.00   0.00  0.05  0.00  0.95  0.00  0.00  0.00  0.00  0.00
  WS02004407WS02004409    1.00   0.05  0.00  0.00  0.94  0.01  0.00  0.00  0.94  0.00
  WS02004409WS02004410    1.00   0.05  0.00  0.00  0.95  0.00  0.00  0.00  0.02  0.00
  WS02004410WS02004411    1.00   0.05  0.00  0.00  0.95  0.00  0.00  0.00  0.00  0.00
  WS02004411WS02004412    1.00   0.05  0.00  0.00  0.95  0.00  0.00  0.00  0.00  0.00
  WS02004412WS02004413    1.00   0.05  0.00  0.00  0.94  0.00  0.00  0.00  0.01  0.00
  WS02004413WS02003067    1.00   0.06  0.04  0.00  0.00  0.00  0.90  0.00  0.00  0.00
  WS02006109WS02006110    1.00   0.00  0.01  0.00  0.98  0.00  0.01  0.00  0.00  0.00
  WS02006110WS02006113    1.00   0.01  0.01  0.00  0.98  0.00  0.00  0.00  0.00  0.00
  WS02006111WS02006112    1.00   0.02  0.00  0.00  0.98  0.00  0.00  0.00  0.98  0.00
  WS02006112WS02006115    1.00   0.02  0.00  0.00  0.97  0.00  0.00  0.00  0.00  0.00
  WS02006113WS02006111    1.00   0.02  0.00  0.00  0.00  0.98  0.00  0.00  0.11  0.00
  WS02006115WS02006116    1.00   0.02  0.00  0.00  0.97  0.00  0.00  0.01  0.00  0.00
  WS02006116WS02004401    1.00   0.02  0.00  0.00  0.98  0.00  0.00  0.00  0.00  0.00
  WS02006228WS02006109    1.00   0.00  0.00  0.00  1.00  0.00  0.00  0.00  0.00  0.00
  WS02006229WS02006228    1.00   0.00  0.00  0.00  0.99  0.00  0.00  0.01  0.00  0.00
  WS02006230WS02006229    1.00   0.00  0.00  0.00  0.99  0.00  0.00  0.01  0.00  0.00
  WS02006231WS02006230    1.00   0.00  0.00  0.00  0.19  0.00  0.80  0.00  0.00  0.00
  WS02006232WS02006231    1.00   0.00  0.00  0.00  0.99  0.00  0.01  0.00  0.00  0.00
  WS02006234WS02006232    1.00   0.00  0.00  0.00  1.00  0.00  0.00  0.00  0.52  0.00
  WS02006235WS02006234    1.00   0.00  0.00  0.00  0.44  0.00  0.56  0.00  0.00  0.00
  WS02006238WS02006235    1.00   0.00  0.00  0.00  1.00  0.00  0.00  0.00  0.00  0.00
  WS02006239WS02006238    1.00   0.00  0.00  0.00  1.00  0.00  0.00  0.00  0.61  0.00
  WS02006240WS02006239    1.00   0.00  0.00  0.00  0.35  0.00  0.00  0.65  0.01  0.00
  WS02006242WS02006240    1.00   0.00  0.00  0.00  0.99  0.00  0.01  0.00  0.00  0.00
  WS02006243WS02006242    1.00   0.00  0.00  0.00  0.99  0.00  0.00  0.01  0.69  0.00
  WS02006245WS02006243    1.00   0.00  0.00  0.00  0.40  0.00  0.00  0.59  0.00  0.00
  WS02006247WS02006245    1.00   0.00  0.00  0.00  0.99  0.00  0.00  0.01  0.00  0.00
  WS02006248WS02006247    1.00   0.00  0.00  0.00  0.99  0.00  0.00  0.01  0.13  0.00
  WS02006249WS02006248    1.00   0.00  0.00  0.00  0.30  0.00  0.70  0.00  0.00  0.00
  WS02006251WS02006249    1.00   0.00  0.00  0.00  1.00  0.00  0.00  0.00  0.70  0.00
  WS02006252WS02006251    1.00   0.00  0.75  0.00  0.00  0.00  0.25  0.00  0.01  0.00
  WS02006256WS02006235    1.00   0.00  0.00  0.00  1.00  0.00  0.00  0.00  0.00  0.00
  WSF200WS02003060        1.00   0.00  0.02  0.00  0.98  0.00  0.00  0.00  0.72  0.00
  YS02001580YS02001583    1.00   0.28  0.55  0.00  0.16  0.00  0.00  0.00  0.65  0.00
  YS02001583YS02001586    1.00   0.48  0.30  0.00  0.21  0.00  0.00  0.00  0.65  0.00
  YS02001586YS02001590    1.00   0.13  0.00  0.00  0.40  0.04  0.00  0.44  0.36  0.00
  YS02001590YS02001593    1.00   0.13  0.01  0.00  0.09  0.00  0.77  0.00  0.00  0.00
  YS02001593YS02001596    1.00   0.14  0.00  0.00  0.67  0.05  0.00  0.15  0.62  0.00
  YS02001596YS02001600    1.00   0.14  0.00  0.00  0.77  0.01  0.00  0.08  0.03  0.00
  YS02001600YS02001601    1.00   0.13  0.01  0.00  0.86  0.00  0.00  0.00  0.05  0.00
  YS02001601YS02001602    1.00   0.13  0.01  0.00  0.86  0.00  0.00  0.00  0.00  0.00
  YS02001602YS02001605    1.00   0.14  0.00  0.00  0.86  0.00  0.00  0.00  0.00  0.00
  YS02001605YS02001607    1.00   0.14  0.00  0.00  0.86  0.00  0.00  0.00  0.00  0.00
  YS02001607YS02001610    1.00   0.13  0.01  0.00  0.86  0.00  0.00  0.00  0.02  0.00
  YS02001610YS02001613    1.00   0.13  0.00  0.00  0.87  0.00  0.00  0.00  0.01  0.00
  YS02001613YS02001616    1.00   0.13  0.00  0.00  0.87  0.00  0.00  0.00  0.01  0.00
  YS02001616YS02001619    1.00   0.13  0.00  0.00  0.87  0.00  0.00  0.00  0.00  0.00
  YS02001619YS02001622    1.00   0.13  0.00  0.00  0.87  0.00  0.00  0.00  0.00  0.00
  YS02001622YS02001625    1.00   0.13  0.00  0.00  0.87  0.00  0.00  0.00  0.05  0.00
  YS02001625YS02001629    1.00   0.13  0.05  0.00  0.74  0.00  0.07  0.00  0.00  0.00
  YS02001629YS02163301    1.00   0.16  0.01  0.00  0.83  0.00  0.00  0.00  0.00  0.00
  YS02001633YS02163601    1.00   0.00  0.01  0.00  0.99  0.00  0.00  0.00  0.15  0.00
  YS02001641YS02001644    1.00   0.00  0.01  0.00  0.99  0.00  0.00  0.00  0.00  0.00
  YS02001644YS02001647    1.00   0.00  0.18  0.00  0.82  0.00  0.00  0.00  0.00  0.00
  YS02001647YS02001649    1.00   0.00  0.18  0.00  0.76  0.06  0.00  0.00  0.02  0.00
  YS02001649YS02001757    1.00   0.00  0.00  0.00  0.93  0.07  0.00  0.00  0.19  0.00
  YS02001652YS02001649    1.00   0.00  0.00  0.00  0.96  0.04  0.00  0.00  0.20  0.00
  YS02001655YS02001652    1.00   0.00  0.00  0.00  0.74  0.01  0.00  0.25  0.02  0.00
  YS02001658YS02001655    1.00   0.00  0.14  0.00  0.71  0.14  0.00  0.00  0.09  0.00
  YS02001661YS02001658    1.00   0.14  0.00  0.00  0.71  0.15  0.00  0.00  0.07  0.00
  YS02001664YS02001661    1.00   0.13  0.00  0.00  0.82  0.06  0.00  0.00  0.86  0.00
  YS02001745YS02001748    1.00   0.00  0.00  0.00  0.70  0.00  0.00  0.30  0.00  0.00
  YS02001748YS02001751    1.00   0.00  0.00  0.00  0.85  0.15  0.00  0.00  0.13  0.00
  YS02001751YS02001754    1.00   0.00  0.00  0.00  0.72  0.00  0.00  0.27  0.01  0.00
  YS02001754YS02001757    1.00   0.00  0.00  0.00  1.00  0.00  0.00  0.00  0.27  0.00
  YS02001757CaochengTiaoxuchi    1.00   0.00  0.00  0.00  1.00  0.00  0.00  0.00  0.26  0.00
  YS02001759YS02001757    1.00   0.00  0.00  0.00  1.00  0.00  0.00  0.00  0.08  0.00
  YS02001762YS02001759    1.00   0.00  0.00  0.00  1.00  0.00  0.00  0.00  0.04  0.00
  YS02001765YS02001762    1.00   0.00  0.00  0.00  1.00  0.00  0.00  0.00  0.17  0.00
  YS02001767YS02001765    1.00   0.00  0.00  0.00  1.00  0.00  0.00  0.00  0.00  0.00
  YS02001770YS02001767    1.00   0.00  0.00  0.00  1.00  0.00  0.00  0.00  0.00  0.00
  YS02001774YS02001770    1.00   0.00  0.13  0.00  0.86  0.00  0.00  0.00  0.03  0.00
  YS02001779YS02001774    1.00   0.00  0.00  0.00  1.00  0.00  0.00  0.00  0.20  0.00
  YS02001783YS02001784    1.00   0.00  0.19  0.00  0.81  0.00  0.00  0.00  0.00  0.00
  YS02001784YS02001785    1.00   0.00  0.00  0.00  1.00  0.00  0.00  0.00  0.18  0.00
  YS02001786YS02001788    1.00   0.00  0.00  0.00  0.93  0.07  0.00  0.00  0.00  0.00
  YS02001788YS02001790    1.00   0.00  0.00  0.00  0.93  0.07  0.00  0.00  0.21  0.00
  YS02001790YS02001791    1.00   0.00  0.00  0.00  0.75  0.25  0.00  0.00  0.05  0.00
  YS02001791YS02001793    1.00   0.00  0.00  0.00  0.74  0.26  0.00  0.00  0.01  0.00
  YS02001793JiankangQianchi    1.00   0.00  0.00  0.00  0.94  0.06  0.00  0.00  0.23  0.00
  YS02001882YS02001884    1.00   0.15  0.01  0.00  0.83  0.00  0.00  0.00  0.00  0.00
  YS02001884YS02001887    1.00   0.06  0.05  0.00  0.89  0.00  0.00  0.00  0.00  0.00
  YS02001887YS02001890    1.00   0.00  0.00  0.00  0.97  0.00  0.03  0.00  0.00  0.00
  YS02001890YS02001895    1.00   0.00  0.17  0.00  0.83  0.00  0.00  0.00  0.00  0.00
  YS02001895YS02001898    1.00   0.17  0.00  0.00  0.81  0.00  0.02  0.00  0.00  0.00
  YS02001898YS02001901    1.00   0.17  0.00  0.00  0.83  0.00  0.00  0.00  0.02  0.00
  YS02001901YS02001904    1.00   0.17  0.00  0.00  0.83  0.00  0.00  0.00  0.00  0.00
  YS02001904YS02001907    1.00   0.00  0.17  0.00  0.83  0.00  0.00  0.00  0.00  0.00
  YS02001907YS02006553    1.00   0.00  0.02  0.00  0.98  0.00  0.00  0.00  0.00  0.00
  YS02001910YS02001907    1.00   0.00  0.00  0.00  0.97  0.00  0.00  0.03  0.12  0.00
  YS02001915YS02001910    1.00   0.00  0.00  0.00  0.96  0.04  0.00  0.00  0.17  0.00
  YS02001918YS02001915    1.00   0.00  0.01  0.00  0.98  0.02  0.00  0.00  0.78  0.00
  YS02001920YS02001918    1.00   0.00  0.01  0.00  0.99  0.00  0.00  0.00  0.00  0.00
  YS02001923YS02001920    1.00   0.00  0.00  0.00  1.00  0.00  0.00  0.00  0.94  0.00
  YS02001926YS02001923    1.00   0.00  0.07  0.00  0.04  0.00  0.89  0.00  0.00  0.00
  YS02001929YS02001926    1.00   0.00  0.13  0.00  0.87  0.00  0.00  0.00  0.84  0.00
  YS02006553YS02006556    1.00   0.01  0.00  0.00  0.99  0.00  0.00  0.00  0.03  0.00
  YS02006556YS02006558    1.00   0.00  0.00  0.00  1.00  0.00  0.00  0.00  0.00  0.00
  YS02006558YS02006561    1.00   0.19  0.00  0.00  0.05  0.76  0.00  0.00  0.18  0.00
  YS02006561YS02001783    1.00   0.19  0.00  0.00  0.73  0.08  0.00  0.00  0.73  0.00
  YS02163301YS02001633    1.00   0.00  0.16  0.00  0.84  0.00  0.00  0.00  0.00  0.00
  YS02163601YS02164001    1.00   0.00  0.08  0.00  0.92  0.00  0.00  0.00  0.00  0.00
  YS02164001YS02001641    1.00   0.01  0.07  0.00  0.92  0.00  0.00  0.00  0.06  0.00
  
  
  *************************
  Conduit Surcharge Summary
  *************************
  
  ----------------------------------------------------------------------------
                                                           Hours        Hours 
                         --------- Hours Full --------   Above Full   Capacity
  Conduit                Both Ends  Upstream  Dnstream   Normal Flow   Limited
  ----------------------------------------------------------------------------
  WS02003072WS02003073        0.01      0.01      0.01      2.31         0.01
  WS02004404WS02004405        0.01      0.01      0.01      2.16         0.01
  WS02006109WS02006110        0.01      0.01      1.43      0.01         0.01
  WS02006110WS02006113        0.01      0.01      1.37      0.01         0.01
  WS02006111WS02006112        0.01      0.01      1.57      0.01         0.01
  WS02006228WS02006109        1.30      1.43      1.30      1.82         1.30
  WS02006229WS02006228        1.29      1.32      1.29      1.66         1.29
  WS02006230WS02006229        1.53      1.60      1.53      2.44         1.53
  WS02006231WS02006230        0.01      0.01      0.01      2.29         0.01
  WS02006232WS02006231        0.01      0.01      1.44      0.01         0.01
  WS02006234WS02006232        1.28      1.28      1.44      0.01         0.01
  WS02006235WS02006234        0.01      0.01      1.32      2.23         0.01
  WS02006238WS02006235        1.34      1.34      1.46      0.01         0.01
  WS02006239WS02006238        1.38      1.43      1.38      1.71         1.38
  WS02006240WS02006239        1.33      1.36      1.33      1.72         1.33
  WS02006242WS02006240        1.34      1.34      1.54      1.83         0.01
  WS02006243WS02006242        1.39      1.39      1.50      0.01         0.01
  WS02006245WS02006243        1.37      1.39      1.37      1.79         1.37
  WS02006247WS02006245        1.38      1.43      1.38      2.00         1.38
  WS02006248WS02006247        1.38      1.38      1.41      0.01         0.01
  WS02006249WS02006248        1.36      1.36      1.40      1.96         0.01
  WS02006251WS02006249        1.40      1.41      1.40      1.89         1.39
  WS02006252WS02006251        1.93      1.93      1.93      1.93         0.01
  WS02006256WS02006235        2.28      2.28      3.06      0.02         0.01
  YS02001580YS02001583        0.37      0.37      0.40      0.01         0.01
  YS02001583YS02001586        0.37      0.37      0.50      0.01         0.01
  YS02001586YS02001590        0.51      0.51      0.58      0.01         0.01
  YS02001590YS02001593        0.58      0.58      0.59      0.57         0.01
  YS02001593YS02001596        0.59      0.59      0.71      0.01         0.01
  YS02001596YS02001600        0.78      0.78      0.96      0.01         0.01
  YS02001600YS02001601        1.10      1.10      6.05      0.01         0.01
  YS02001601YS02001602        5.98      5.98      6.07      0.80         0.01
  YS02001602YS02001605        5.95      5.95      5.98      2.03         0.06
  YS02001605YS02001607        5.91      5.95      5.91      1.07         0.92
  YS02001607YS02001610        0.68      0.68      0.75      0.01         0.01
  YS02001610YS02001613        0.68      0.68      0.75      0.01         0.01
  YS02001613YS02001616        0.60      0.60      0.68      0.01         0.01
  YS02001616YS02001619        0.59      0.59      0.60      0.01         0.01
  YS02001619YS02001622        0.59      0.59      0.60      0.50         0.42
  YS02001622YS02001625        0.60      0.60      5.76      0.01         0.01
  YS02001625YS02001629        0.54      0.54      5.76      0.01         0.01
  YS02001629YS02163301        5.76      5.76      5.76      0.07         0.10
  YS02001633YS02163601        5.77      5.77      5.78      0.23         0.23
  YS02001641YS02001644        5.72      5.73      5.72      1.15         0.82
  YS02001644YS02001647        5.64      5.64      5.72      0.02         0.01
  YS02001647YS02001649        5.64      5.64      5.65      0.01         0.01
  YS02001649YS02001757        5.65      5.65      5.65      0.09         0.04
  YS02001652YS02001649        5.64      5.64      5.65      0.01         0.01
  YS02001655YS02001652        0.27      0.27      5.54      0.01         0.01
  YS02001658YS02001655        0.08      0.08      0.27      0.01         0.01
  YS02001661YS02001658        0.01      0.01      0.08      0.01         0.01
  YS02001664YS02001661        0.01      0.01      0.01      0.01         0.01
  YS02001745YS02001748        0.01      0.01      0.02      0.01         0.01
  YS02001748YS02001751        0.06      0.06      0.14      0.01         0.01
  YS02001751YS02001754        0.14      0.14      4.98      0.01         0.01
  YS02001754YS02001757        5.63      5.63      5.65      0.01         0.01
  YS02001757CaochengTiaoxuchi        5.65      5.65      5.67      0.21         0.18
  YS02001759YS02001757        5.65      5.65      5.65      0.01         0.01
  YS02001762YS02001759        5.64      5.64      5.65      0.01         0.02
  YS02001765YS02001762        5.64      5.64      5.64      0.01         0.01
  YS02001767YS02001765        5.64      5.64      5.64      0.01         0.02
  YS02001770YS02001767        5.64      5.64      5.64      0.31         0.41
  YS02001774YS02001770        5.64      5.64      5.64      0.01         0.01
  YS02001779YS02001774        2.86      2.86      5.64      0.01         0.01
  YS02001783YS02001784        0.54      0.54      0.57      0.41         0.42
  YS02001784YS02001785        0.55      0.57      0.55      0.65         0.55
  YS02001786YS02001788        0.54      0.55      0.54      0.60         0.54
  YS02001788YS02001790        0.54      0.54      5.86      0.01         0.01
  YS02001790YS02001791        5.86      5.86      5.87      0.23         0.23
  YS02001791YS02001793        5.87      5.87      5.91      0.01         0.01
  YS02001793JiankangQianchi        5.90      5.90      6.21      0.01         0.01
  YS02001882YS02001884        0.33      0.33      0.34      0.01         0.01
  YS02001884YS02001887        0.35      0.35      0.36      0.01         0.01
  YS02001887YS02001890        0.37      0.37      0.38      0.01         0.01
  YS02001890YS02001895        0.31      0.31      0.40      0.01         0.01
  YS02001895YS02001898        0.31      0.31      0.31      0.01         0.01
  YS02001898YS02001901        0.32      0.32      0.35      0.01         0.01
  YS02001901YS02001904        0.34      0.34      0.35      0.01         0.01
  YS02001904YS02001907        0.34      0.34      0.57      0.01         0.01
  YS02001907YS02006553        0.68      0.68      0.73      0.01         0.01
  YS02001910YS02001907        0.39      0.39      0.55      0.01         0.01
  YS02001915YS02001910        0.32      0.32      0.39      0.01         0.01
  YS02001918YS02001915        0.24      0.24      0.32      0.01         0.01
  YS02001920YS02001918        0.24      0.24      0.26      0.01         0.01
  YS02001923YS02001920        0.20      0.20      0.26      0.01         0.01
  YS02001926YS02001923        0.01      0.01      0.01      0.01         0.01
  YS02001929YS02001926        0.01      0.01      0.01      0.01         0.01
  YS02006553YS02006556        0.48      0.48      0.57      0.01         0.01
  YS02006556YS02006558        0.51      0.51      0.58      0.01         0.01
  YS02006558YS02006561        0.35      0.47      0.35      0.63         0.35
  YS02006561YS02001783        0.28      0.28      0.54      0.01         0.01
  YS02163301YS02001633        5.76      5.76      5.77      0.01         0.01
  YS02163601YS02164001        5.74      5.74      5.78      0.09         0.01
  YS02164001YS02001641        5.73      5.74      5.73      0.50         0.44
  
  
  ***************
  Pumping Summary
  ***************
  
  ---------------------------------------------------------------------------------------------------------
                                                  Min       Avg       Max     Total     Power    % Time Off
                        Percent   Number of      Flow      Flow      Flow    Volume     Usage    Pump Curve
  Pump                 Utilized   Start-Ups       LPS       LPS       LPS  10^6 ltr     Kw-hr    Low   High
  ---------------------------------------------------------------------------------------------------------
  CC-R1                    1.06           1      0.00    683.00    683.00     0.208      3.51    0.0  100.0
  CC-R2                    1.06           1      0.00    683.00    683.00     0.208      3.51    0.0  100.0
  CC-S1                   25.11           5      0.00    200.00    200.00     1.446      7.48    0.0   37.6
  CC-S2                   24.07           4      0.00    200.00    200.00     1.386      7.33    0.0   34.9
  JK-R1                    0.97           2      0.00    347.46   1000.00     0.078      0.47    0.0    0.0
  JK-R2                    0.97           2      0.00    347.46   1000.00     0.078      0.47    0.0    0.0
  JK-S                     0.97           2      0.00    104.30    300.00     0.023      0.44    0.0    0.0
  XR-1                   100.00           1      0.00     95.00     95.00     2.736     68.18    0.0    0.0
  XR-2                   100.00           1      0.00     95.00     95.00     2.736     68.18    0.0    0.0
  XR-3                   100.00           1      0.00     95.00     95.00     2.736     68.18    0.0    0.0
  XR-4                   100.00           1      0.00     95.00     95.00     2.736     68.18    0.0    0.0
  

  Analysis begun on:  Wed Nov  5 16:29:49 2025
  Analysis ended on:  Wed Nov  5 16:29:51 2025
  Total elapsed time: 00:00:02