
  EPA STORM WATER MANAGEMENT MODEL - VERSION 5.2 (Build 5.2.4)
  PYSWMM TOOLKIT API - VERSION v1.0 (2023-11-27)
  ------------------------------------------------------------

  WARNING 04: minimum elevation drop used for Conduit WS02004404WS02004405
  WARNING 03: negative offset ignored for Link YS02001904YS02001907
  
  ****************
  Analysis Options
  ****************
  Flow Units ............... LPS
  Process Models:
    Rainfall/Runoff ........ YES
    RDII ................... NO
    Snowmelt ............... NO
    Groundwater ............ NO
    Flow Routing ........... YES
    Ponding Allowed ........ NO
    Water Quality .......... NO
  Infiltration Method ...... HORTON
  Flow Routing Method ...... DYNWAVE
  Surcharge Method ......... EXTRAN
  Starting Date ............ 08/28/2015 08:00:00
  Ending Date .............. 08/28/2015 16:00:00
  Antecedent Dry Days ...... 8.0
  Report Time Step ......... 00:01:00
  Wet Time Step ............ 00:01:00
  Dry Time Step ............ 00:01:00
  Routing Time Step ........ 30.00 sec
  Variable Time Step ....... YES
  Maximum Trials ........... 8
  Number of Threads ........ 4
  Head Tolerance ........... 0.001500 m
  
  
  **************************        Volume         Depth
  Runoff Quantity Continuity     hectare-m            mm
  **************************     ---------       -------
  Initial LID Storage ......         0.049         1.488
  Total Precipitation ......         1.745        52.602
  Evaporation Loss .........         0.000         0.000
  Infiltration Loss ........         0.076         2.281
  Surface Runoff ...........         1.276        38.468
  Final Storage ............         0.443        13.360
  Continuity Error (%) .....        -0.035
  
  
  **************************        Volume        Volume
  Flow Routing Continuity        hectare-m      10^6 ltr
  **************************     ---------     ---------
  Dry Weather Inflow .......         0.602         6.020
  Wet Weather Inflow .......         1.276        12.761
  Groundwater Inflow .......         0.000         0.000
  RDII Inflow ..............         0.000         0.000
  External Inflow ..........         0.105         1.045
  External Outflow .........         1.495        14.954
  Flooding Loss ............         0.463         4.630
  Evaporation Loss .........         0.000         0.000
  Exfiltration Loss ........         0.000         0.000
  Initial Stored Volume ....         0.303         3.031
  Final Stored Volume ......         0.784         7.837
  Continuity Error (%) .....       -19.973
  
  
  *************************
  Highest Continuity Errors
  *************************
  Node YS02001774 (29.04%)
  Node WS02006256 (-6.27%)
  Node YS02001884 (4.97%)
  Node YS02001583 (-4.44%)
  Node YS02001754 (4.38%)
  
  
  ***************************
  Time-Step Critical Elements
  ***************************
  Link WS02001212WS02001213 (33.44%)
  Link WS02006238WS02006235 (20.21%)
  Link WS02006235WS02006234 (17.90%)
  Link WS02003066WSF200 (5.86%)
  Link YS02006556YS02006558 (5.67%)
  
  
  ********************************
  Highest Flow Instability Indexes
  ********************************
  Link WS02006113WS02006111 (37)
  Link WS02006111WS02006112 (27)
  Link WS02006238WS02006235 (26)
  Link WS02006256WS02006235 (26)
  Link WS02006252WS02006251 (21)
  
  
  *********************************
  Most Frequent Nonconverging Nodes
  *********************************
  Node CC-1 (10.83%)
  Node CC-2 (10.83%)
  Node JK-1 (10.83%)
  Node JK-2 (10.83%)
  Node WSC (10.83%)
  
  
  *************************
  Routing Time Step Summary
  *************************
  Minimum Time Step           :     0.06 sec
  Average Time Step           :     3.68 sec
  Maximum Time Step           :     6.46 sec
  % of Time in Steady State   :     0.00
  Average Iterations per Step :     3.14
  % of Steps Not Converging   :    10.83
  Time Step Frequencies       :
     30.000 - 13.228 sec      :     0.00 %
     13.228 -  5.833 sec      :    32.14 %
      5.833 -  2.572 sec      :    36.48 %
      2.572 -  1.134 sec      :    20.55 %
      1.134 -  0.500 sec      :    10.84 %
  
  
  ***************************
  Subcatchment Runoff Summary
  ***************************
  
  ------------------------------------------------------------------------------------------------------------------------------
                            Total      Total      Total      Total     Imperv       Perv      Total       Total     Peak  Runoff
                           Precip      Runon       Evap      Infil     Runoff     Runoff     Runoff      Runoff   Runoff   Coeff
  Subcatchment                 mm         mm         mm         mm         mm         mm         mm    10^6 ltr      LPS
  ------------------------------------------------------------------------------------------------------------------------------
  sub60                     52.60       0.00       0.00       1.34      34.80       3.53      38.33        0.50   387.26   0.729
  sub61                     52.60       0.00       0.00       2.06      34.77       5.25      40.02        0.73   565.76   0.761
  sub62                     52.60       0.00       0.00       0.91      37.06       2.40      39.46        1.08   774.11   0.750
  sub63                     52.60       0.00       0.00       3.81      29.78       8.67      38.45        0.87   645.55   0.731
  sub64                     52.60       0.00       0.00       1.82      33.90       4.32      38.23        0.92   631.43   0.727
  sub65                     52.60       0.00       0.00       1.68      36.59       3.94      40.53        1.12   735.31   0.771
  sub66                     52.60       0.00       0.00       4.50      28.78       7.60      36.39        1.70   959.03   0.692
  sub67                     52.60       0.00       0.00       0.90      38.00       2.49      40.49        0.75   597.26   0.770
  sub68                     52.60       0.00       0.00       1.58      33.56       4.03      37.59        1.03   772.32   0.715
  sub69                     52.60       0.00       0.00       1.45      35.36       4.80      40.16        1.49   950.50   0.763
  sub70                     52.60       0.00       0.00       4.95      28.31       9.69      38.01        1.10   552.67   0.723
  sub71                     52.60       0.00       0.00       0.84      33.67       2.17      35.83        0.94   637.25   0.681
  sub72                     52.60       0.00       0.00       0.80      36.36       2.01      38.37        0.53   326.62   0.729
  

  ***********************
  LID Performance Summary
  ***********************

  --------------------------------------------------------------------------------------------------------------------
                                         Total      Evap     Infil   Surface    Drain    Initial     Final  Continuity
                                        Inflow      Loss      Loss   Outflow   Outflow   Storage   Storage       Error
  Subcatchment      LID Control             mm        mm        mm        mm        mm        mm        mm           %
  --------------------------------------------------------------------------------------------------------------------
  sub60             GreenRoof            52.60      0.00      0.00      0.00      0.00      7.05     59.69       -0.07
  sub61             GreenRoof            52.60      0.00      0.00      0.00      0.00      7.05     59.69       -0.07
  sub62             GreenRoof            52.60      0.00      0.00      0.00      0.00      7.05     59.69       -0.07
  sub63             GreenRoof            52.60      0.00      0.00      0.00      0.00      7.05     59.69       -0.07
  sub64             GreenRoof            52.60      0.00      0.00      0.00      0.00      7.05     59.69       -0.07
  sub65             GreenRoof            52.60      0.00      0.00      0.00      0.00      7.05     59.69       -0.07
  sub66             GreenRoof            52.60      0.00      0.00      0.00      0.00      7.05     59.69       -0.07
  sub67             GreenRoof            52.60      0.00      0.00      0.00      0.00      7.05     59.69       -0.07
  sub68             GreenRoof            52.60      0.00      0.00      0.00      0.00      7.05     59.69       -0.07
  sub69             GreenRoof            52.60      0.00      0.00      0.00      0.00      7.05     59.69       -0.07
  sub70             GreenRoof            52.60      0.00      0.00      0.00      0.00      7.05     59.69       -0.07
  sub71             GreenRoof            52.60      0.00      0.00      0.00      0.00      7.05     59.69       -0.07
  sub72             GreenRoof            52.60      0.00      0.00      0.00      0.00      7.05     59.69       -0.07
  
  ******************
  Node Depth Summary
  ******************
  
  ---------------------------------------------------------------------------------
                                 Average  Maximum  Maximum  Time of Max    Reported
                                   Depth    Depth      HGL   Occurrence   Max Depth
  Node                 Type       Meters   Meters   Meters  days hr:min      Meters
  ---------------------------------------------------------------------------------
  WS02001211           JUNCTION     0.76     0.78     5.62     0  02:53        0.78
  WS02001212           JUNCTION     0.46     0.49     5.55     0  02:52        0.49
  WS02001213           JUNCTION     0.68     0.73     5.49     0  02:51        0.73
  WS02003059           JUNCTION     0.72     0.78     5.47     0  02:51        0.78
  WS02003060           JUNCTION     0.38     0.47     5.41     0  02:50        0.47
  WS02003066           JUNCTION     0.15     0.27     5.82     0  02:44        0.27
  WS02003067           JUNCTION     0.42     0.65     5.97     0  02:44        0.65
  WS02003069           JUNCTION     0.42     0.54     5.12     0  02:51        0.54
  WS02003072           JUNCTION     0.49     0.60     4.97     0  02:51        0.60
  WS02003073           JUNCTION     0.29     0.37     4.43     0  02:52        0.37
  WS02004138           JUNCTION     0.19     0.20     7.45     0  00:00        0.19
  WS02004139           JUNCTION     0.71     0.73     5.64     0  02:53        0.73
  WS02004401           JUNCTION     0.50     0.75     6.75     0  02:41        0.75
  WS02004402           JUNCTION     0.54     0.78     6.74     0  02:41        0.78
  WS02004403           JUNCTION     0.56     0.80     6.73     0  02:42        0.80
  WS02004404           JUNCTION     0.63     0.88     6.73     0  02:42        0.88
  WS02004405           JUNCTION     0.63     0.88     6.73     0  02:42        0.88
  WS02004406           JUNCTION     0.65     0.88     6.71     0  02:42        0.88
  WS02004407           JUNCTION     0.13     0.26     6.57     0  02:43        0.26
  WS02004409           JUNCTION     0.29     0.58     6.35     0  02:43        0.57
  WS02004410           JUNCTION     0.32     0.59     6.31     0  02:43        0.59
  WS02004411           JUNCTION     0.35     0.61     6.29     0  02:43        0.61
  WS02004412           JUNCTION     0.37     0.62     6.26     0  02:44        0.62
  WS02004413           JUNCTION     0.53     0.79     6.26     0  02:44        0.79
  WS02006109           JUNCTION     0.55     0.84     7.45     0  02:24        0.83
  WS02006110           JUNCTION     0.56     0.82     7.41     0  02:19        0.82
  WS02006111           JUNCTION     0.14     0.25     6.96     0  02:13        0.25
  WS02006112           JUNCTION     0.65     0.93     6.82     0  02:46        0.93
  WS02006113           JUNCTION     0.21     0.39     7.29     0  02:17        0.39
  WS02006115           JUNCTION     0.38     0.65     6.78     0  02:41        0.65
  WS02006116           JUNCTION     0.47     0.73     6.77     0  02:41        0.73
  WS02006228           JUNCTION     0.54     0.85     7.50     0  02:24        0.84
  WS02006229           JUNCTION     0.50     0.83     7.52     0  02:24        0.82
  WS02006230           JUNCTION     0.49     0.86     7.60     0  02:18        0.86
  WS02006231           JUNCTION     0.29     0.60     7.72     0  02:53        0.60
  WS02006232           JUNCTION     0.41     0.75     7.79     0  02:53        0.75
  WS02006234           JUNCTION     0.32     0.71     7.87     0  02:53        0.71
  WS02006235           JUNCTION     0.36     0.77     7.93     0  02:22        0.76
  WS02006238           JUNCTION     0.38     0.81     7.96     0  02:18        0.80
  WS02006239           JUNCTION     0.36     0.81     8.02     0  02:53        0.80
  WS02006240           JUNCTION     0.35     0.79     8.08     0  02:17        0.79
  WS02006242           JUNCTION     0.41     0.90     8.17     0  02:20        0.90
  WS02006243           JUNCTION     0.35     0.84     8.26     0  02:38        0.84
  WS02006245           JUNCTION     0.36     0.86     8.34     0  02:43        0.85
  WS02006247           JUNCTION     0.38     0.89     8.39     0  02:58        0.89
  WS02006248           JUNCTION     0.35     0.86     8.44     0  02:44        0.85
  WS02006249           JUNCTION     0.38     0.92     8.52     0  02:17        0.92
  WS02006251           JUNCTION     0.38     0.91     8.58     0  02:25        0.91
  WS02006252           JUNCTION     0.26     1.50     9.74     0  00:00        0.59
  WS02006256           JUNCTION     0.59     2.35     9.28     0  00:00        2.35
  WSF200               JUNCTION     0.12     0.25     5.48     0  02:50        0.25
  YS02001580           JUNCTION     0.07     1.05     9.59     0  02:17        1.05
  YS02001583           JUNCTION     0.10     1.06     9.56     0  02:17        0.90
  YS02001586           JUNCTION     0.17     1.13     9.30     0  02:17        1.13
  YS02001590           JUNCTION     0.27     1.40     9.26     0  02:18        1.40
  YS02001593           JUNCTION     0.20     1.38     9.25     0  02:18        1.38
  YS02001596           JUNCTION     0.37     1.73     9.15     0  02:18        1.73
  YS02001600           JUNCTION     0.59     1.87     9.00     0  02:18        1.87
  YS02001601           JUNCTION     0.83     2.06     8.90     0  02:17        2.06
  YS02001602           JUNCTION     0.75     1.87     8.77     0  02:17        1.87
  YS02001605           JUNCTION     0.72     1.78     8.68     0  02:38        1.78
  YS02001607           JUNCTION     0.72     1.65     8.50     0  02:21        1.65
  YS02001610           JUNCTION     0.76     1.68     8.48     0  02:20        1.68
  YS02001613           JUNCTION     0.72     1.67     8.51     0  02:21        1.67
  YS02001616           JUNCTION     0.65     1.61     8.52     0  02:21        1.61
  YS02001619           JUNCTION     0.63     1.61     8.54     0  02:21        1.61
  YS02001622           JUNCTION     0.64     1.58     8.49     0  02:21        1.58
  YS02001625           JUNCTION     0.89     1.78     8.38     0  02:21        1.78
  YS02001629           JUNCTION     0.90     1.85     8.40     0  02:21        1.85
  YS02001633           JUNCTION     0.98     2.02     8.47     0  02:23        2.01
  YS02001641           JUNCTION     0.96     1.96     8.39     0  02:23        1.94
  YS02001644           JUNCTION     0.96     1.92     8.35     0  02:23        1.92
  YS02001647           JUNCTION     0.77     1.74     8.35     0  02:24        1.72
  YS02001649           JUNCTION     0.91     1.95     8.34     0  02:24        1.91
  YS02001652           JUNCTION     0.75     1.81     8.41     0  02:24        1.74
  YS02001655           JUNCTION     0.57     1.61     8.46     0  02:24        1.53
  YS02001658           JUNCTION     0.38     1.44     8.58     0  02:23        1.27
  YS02001661           JUNCTION     0.22     1.22     8.62     0  02:24        1.02
  YS02001664           JUNCTION     0.05     0.55     8.47     0  02:24        0.42
  YS02001745           JUNCTION     0.12     0.73     8.25     0  02:24        0.72
  YS02001748           JUNCTION     0.41     1.50     8.58     0  02:23        1.16
  YS02001751           JUNCTION     0.53     1.54     8.42     0  02:23        1.35
  YS02001754           JUNCTION     0.72     1.65     8.25     0  02:23        1.59
  YS02001757           JUNCTION     0.99     1.95     8.21     0  02:24        1.92
  YS02001759           JUNCTION     0.91     1.93     8.30     0  02:24        1.91
  YS02001762           JUNCTION     0.88     1.92     8.32     0  02:24        1.90
  YS02001765           JUNCTION     0.85     1.88     8.33     0  02:24        1.87
  YS02001767           JUNCTION     0.82     1.87     8.36     0  02:24        1.86
  YS02001770           JUNCTION     0.83     1.94     8.44     0  02:21        1.90
  YS02001774           JUNCTION     0.89     2.04     8.46     0  02:21        1.96
  YS02001779           JUNCTION     0.66     1.68     8.37     0  02:21        1.68
  YS02001783           JUNCTION     0.46     1.51     7.65     0  02:21        1.49
  YS02001784           JUNCTION     0.50     1.46     7.53     0  02:21        1.43
  YS02001786           JUNCTION     0.50     1.30     7.33     0  02:21        1.27
  YS02001788           JUNCTION     0.51     1.16     7.14     0  02:21        1.14
  YS02001790           JUNCTION     0.73     1.32     6.96     0  02:21        1.30
  YS02001791           JUNCTION     0.82     1.29     6.76     0  02:12        1.27
  YS02001793           JUNCTION     1.25     1.83     6.66     0  02:12        1.80
  YS02001882           JUNCTION     0.28     1.64     8.36     0  02:21        1.64
  YS02001884           JUNCTION     0.37     1.74     8.36     0  02:23        1.74
  YS02001887           JUNCTION     0.44     1.83     8.37     0  02:23        1.83
  YS02001890           JUNCTION     0.47     1.81     8.32     0  02:21        1.81
  YS02001895           JUNCTION     0.25     1.57     8.32     0  02:23        1.57
  YS02001898           JUNCTION     0.26     1.57     8.30     0  02:26        1.57
  YS02001901           JUNCTION     0.37     1.68     8.29     0  02:23        1.67
  YS02001904           JUNCTION     0.35     1.64     8.27     0  02:26        1.63
  YS02001907           JUNCTION     0.66     1.96     8.25     0  02:21        1.96
  YS02001910           JUNCTION     0.46     1.95     8.46     0  02:21        1.94
  YS02001915           JUNCTION     0.28     1.90     8.61     0  02:22        1.88
  YS02001918           JUNCTION     0.14     1.81     8.88     0  02:21        1.81
  YS02001920           JUNCTION     0.22     2.14     9.15     0  02:21        2.08
  YS02001923           JUNCTION     0.10     2.03     9.29     0  02:21        2.03
  YS02001926           JUNCTION     0.14     1.90     9.35     0  02:21        1.90
  YS02001929           JUNCTION     0.07     1.78     9.47     0  02:21        1.66
  YS02006553           JUNCTION     0.66     1.99     8.27     0  02:23        1.99
  YS02006556           JUNCTION     0.64     1.97     8.28     0  02:23        1.97
  YS02006558           JUNCTION     0.68     2.04     8.31     0  02:23        2.04
  YS02006561           JUNCTION     0.15     1.12     7.78     0  02:21        1.11
  YS02163301           JUNCTION     0.92     1.92     8.43     0  02:23        1.91
  YS02163601           JUNCTION     1.01     2.05     8.44     0  02:23        2.01
  YS02164001           JUNCTION     0.95     1.97     8.42     0  02:23        1.93
  CC-1                 OUTFALL      0.00     0.00     0.00     0  00:00        0.00
  CC-2                 OUTFALL      0.00     0.00     0.00     0  00:00        0.00
  JK-1                 OUTFALL      0.00     0.00     0.00     0  00:00        0.00
  JK-2                 OUTFALL      0.00     0.00     0.00     0  00:00        0.00
  WSC                  OUTFALL      0.29     0.37     1.04     0  02:52        0.37
  CC-storage           STORAGE      1.56     2.16     7.66     0  07:50        2.16
  JK-storage           STORAGE      4.30     5.80     6.60     0  02:11        5.80
  XR-storage           STORAGE      0.30     5.00     3.00     0  00:00        4.91
  
  
  *******************
  Node Inflow Summary
  *******************
  
  -------------------------------------------------------------------------------------------------
                                  Maximum  Maximum                  Lateral       Total        Flow
                                  Lateral    Total  Time of Max      Inflow      Inflow     Balance
                                   Inflow   Inflow   Occurrence      Volume      Volume       Error
  Node                 Type           LPS      LPS  days hr:min    10^6 ltr    10^6 ltr     Percent
  -------------------------------------------------------------------------------------------------
  WS02001211           JUNCTION      7.35   389.12     0  03:41       0.212        11.1       0.348
  WS02001212           JUNCTION      0.00   390.85     0  03:41           0        11.1       0.207
  WS02001213           JUNCTION      0.00   392.60     0  03:40           0        11.1       0.238
  WS02003059           JUNCTION      0.00   395.65     0  03:40           0          11       0.328
  WS02003060           JUNCTION     16.53   816.06     0  02:50       0.476        14.4       0.150
  WS02003066           JUNCTION      0.00   411.86     0  02:44           0        2.96       0.041
  WS02003067           JUNCTION      0.00   411.86     0  02:44           0        2.96       0.135
  WS02003069           JUNCTION      0.32   816.36     0  02:50     0.00922        14.4       0.158
  WS02003072           JUNCTION      0.00   816.35     0  02:51           0        14.4       0.206
  WS02003073           JUNCTION      1.82   818.16     0  02:52      0.0524        14.4       0.221
  WS02004138           JUNCTION      0.00   380.00     0  00:00           0        10.9       0.059
  WS02004139           JUNCTION      0.32   395.52     0  00:00     0.00924        10.9       0.407
  WS02004401           JUNCTION      0.00   412.15     0  02:41           0        3.06       0.324
  WS02004402           JUNCTION      0.00   412.05     0  02:41           0        3.05       0.330
  WS02004403           JUNCTION      0.00   412.08     0  02:42           0        3.04       0.324
  WS02004404           JUNCTION      0.16   412.14     0  02:42     0.00467        3.03       0.271
  WS02004405           JUNCTION      0.04   412.18     0  02:42      0.0011        3.03       0.404
  WS02004406           JUNCTION      0.00   412.24     0  02:42           0        3.01       0.677
  WS02004407           JUNCTION      0.00   412.07     0  02:42           0        2.99       0.030
  WS02004409           JUNCTION      0.00   412.01     0  02:43           0        2.99       0.072
  WS02004410           JUNCTION      0.00   411.96     0  02:43           0        2.99       0.130
  WS02004411           JUNCTION      0.00   411.94     0  02:43           0        2.99       0.171
  WS02004412           JUNCTION      0.00   411.92     0  02:44           0        2.98       0.235
  WS02004413           JUNCTION      0.00   411.91     0  02:44           0        2.98       0.422
  WS02006109           JUNCTION      1.23   412.30     0  02:24      0.0354         3.1       0.192
  WS02006110           JUNCTION      0.00   411.85     0  02:24           0         3.1       0.200
  WS02006111           JUNCTION      0.00   424.22     0  03:26           0        3.09       0.027
  WS02006112           JUNCTION      0.00   413.87     0  02:13           0        3.09       0.564
  WS02006113           JUNCTION      0.00   411.95     0  02:46           0        3.09       0.044
  WS02006115           JUNCTION      0.00   412.30     0  02:40           0        3.07       0.202
  WS02006116           JUNCTION      0.00   412.18     0  02:19           0        3.06       0.148
  WS02006228           JUNCTION      0.00   412.32     0  02:24           0        3.07       0.054
  WS02006229           JUNCTION      0.00   410.86     0  02:24           0        3.07       0.156
  WS02006230           JUNCTION     10.28   410.63     0  02:26       0.296        3.08       0.179
  WS02006231           JUNCTION      0.00   400.49     0  02:53           0        2.78      -0.084
  WS02006232           JUNCTION      0.00   400.47     0  02:53           0        2.79       0.296
  WS02006234           JUNCTION      0.00   402.22     0  02:53           0        2.78      -0.197
  WS02006235           JUNCTION      0.00   402.18     0  02:29           0         2.8       0.262
  WS02006238           JUNCTION      0.00   401.75     0  02:29           0        2.77      -0.370
  WS02006239           JUNCTION      0.00   401.27     0  02:53           0        2.76      -0.247
  WS02006240           JUNCTION      0.00   400.86     0  02:26           0        2.75      -0.083
  WS02006242           JUNCTION      0.00   400.86     0  02:26           0        2.75       0.126
  WS02006243           JUNCTION      0.00   401.45     0  02:56           0        2.76       0.155
  WS02006245           JUNCTION      0.00   402.88     0  02:39           0        2.78       0.788
  WS02006247           JUNCTION      0.00   401.29     0  02:23           0        2.79       0.232
  WS02006248           JUNCTION      0.00   401.02     0  02:23           0        2.79       0.310
  WS02006249           JUNCTION      0.00   462.37     0  01:46           0        2.82       0.720
  WS02006251           JUNCTION      0.08   402.91     0  01:45     0.00222        2.82       0.188
  WS02006252           JUNCTION      0.00   400.00     0  00:00           0        2.82      -0.061
  WS02006256           JUNCTION      0.00   300.00     0  00:00           0      0.0242      -5.896
  WSF200               JUNCTION      0.00   411.86     0  02:44           0        2.96       0.018
  YS02001580           JUNCTION      0.00    90.81     0  02:17           0     0.00391      -4.123
  YS02001583           JUNCTION      0.00   148.30     0  02:17           0       0.015      -4.255
  YS02001586           JUNCTION    552.67   552.67     0  02:26         1.1        1.11       0.098
  YS02001590           JUNCTION      0.00   318.07     0  02:23           0       0.977       0.005
  YS02001593           JUNCTION      0.00   318.06     0  02:24           0       0.977       0.054
  YS02001596           JUNCTION      0.00   317.98     0  02:23           0       0.977       0.189
  YS02001600           JUNCTION      0.00   318.19     0  02:30           0       0.976       0.688
  YS02001601           JUNCTION    950.50  1268.09     0  02:25        1.49        2.46       0.373
  YS02001602           JUNCTION      0.00   507.93     0  02:17           0        1.76       0.538
  YS02001605           JUNCTION      0.00   508.45     0  02:17           0        1.68       0.844
  YS02001607           JUNCTION      0.00   508.65     0  02:17           0        1.67       1.179
  YS02001610           JUNCTION      0.00   508.80     0  02:17           0        1.67       1.271
  YS02001613           JUNCTION      0.00   509.34     0  02:17           0        1.42       1.531
  YS02001616           JUNCTION      0.00   505.55     0  02:16           0        1.41       1.340
  YS02001619           JUNCTION    959.03   959.03     0  02:26         1.7        3.06       0.599
  YS02001622           JUNCTION      0.00   935.31     0  02:20           0        3.02       0.848
  YS02001625           JUNCTION      0.00  1035.30     0  02:26           0        3.03       1.488
  YS02001629           JUNCTION      0.00   934.69     0  02:20           0        2.54       0.806
  YS02001633           JUNCTION    735.51  1387.90     0  02:20        1.12        3.57       0.902
  YS02001641           JUNCTION      0.00  1388.50     0  02:20           0        3.46       0.613
  YS02001644           JUNCTION    631.47  1774.60     0  02:20       0.919        4.36       0.603
  YS02001647           JUNCTION      0.00  1775.03     0  02:20           0        4.26       0.662
  YS02001649           JUNCTION      0.00  1980.98     0  02:20           0        5.06       0.742
  YS02001652           JUNCTION      0.00   748.65     0  02:25           0        0.86       2.709
  YS02001655           JUNCTION      0.15   747.17     0  02:25     0.00443       0.881       2.185
  YS02001658           JUNCTION      0.00   745.60     0  02:25           0       0.894       1.261
  YS02001661           JUNCTION      0.00   770.25     0  02:24           0       0.887       0.353
  YS02001664           JUNCTION    645.55   645.55     0  02:25       0.873       0.873      -0.029
  YS02001745           JUNCTION    387.26   387.26     0  02:25       0.504       0.519       0.573
  YS02001748           JUNCTION      0.04   546.00     0  02:23      0.0013       0.541       1.772
  YS02001751           JUNCTION      0.01   414.29     0  02:24    0.000317       0.533       3.719
  YS02001754           JUNCTION      0.26   413.33     0  02:24     0.00749       0.517       4.583
  YS02001757           JUNCTION      0.00  3234.35     0  02:24           0        7.15       1.323
  YS02001759           JUNCTION    565.80  1265.60     0  02:25       0.736        1.68       1.391
  YS02001762           JUNCTION      0.00   727.01     0  02:26           0       0.967       2.226
  YS02001765           JUNCTION      0.00   727.45     0  02:26           0       0.991       2.501
  YS02001767           JUNCTION      0.54   728.40     0  02:26      0.0154        1.03       3.595
  YS02001770           JUNCTION    774.27   774.27     0  02:25        1.09        1.11       2.884
  YS02001774           JUNCTION      0.00   287.52     0  02:21           0      0.0868      40.918
  YS02001779           JUNCTION      0.01   284.16     0  02:21    0.000144      0.0398      52.395
  YS02001783           JUNCTION      0.00   976.29     0  02:23           0        2.76       0.250
  YS02001784           JUNCTION      1.06   977.27     0  02:23      0.0305        2.78       0.377
  YS02001786           JUNCTION      0.06   977.21     0  02:24     0.00162        2.78       0.489
  YS02001788           JUNCTION      0.07   977.66     0  02:24     0.00204        2.76       0.492
  YS02001790           JUNCTION      0.15   977.66     0  02:24     0.00446        2.76       0.587
  YS02001791           JUNCTION      0.00   978.09     0  02:24           0        2.74       0.544
  YS02001793           JUNCTION      0.00   978.29     0  02:23           0        2.72       0.586
  YS02001882           JUNCTION      0.00    42.94     0  02:19           0      0.0123       3.846
  YS02001884           JUNCTION      0.00    78.26     0  02:19           0       0.048       5.226
  YS02001887           JUNCTION    597.71   597.74     0  02:25       0.766         0.8       0.556
  YS02001890           JUNCTION      0.00   597.90     0  02:25           0       0.759       0.658
  YS02001895           JUNCTION      0.00   514.69     0  02:26           0       0.741       0.146
  YS02001898           JUNCTION      0.00   514.94     0  02:26           0        0.74       0.043
  YS02001901           JUNCTION      0.00   514.86     0  02:26           0       0.742       0.422
  YS02001904           JUNCTION      0.00   514.98     0  02:26           0       0.746       0.360
  YS02001907           JUNCTION      0.00  1527.49     0  02:26           0        2.29       0.781
  YS02001910           JUNCTION      0.00  1014.21     0  02:26           0        1.55       0.460
  YS02001915           JUNCTION    637.27  1012.88     0  02:26       0.938        1.59       0.097
  YS02001918           JUNCTION      0.00   458.44     0  02:22           0       0.685       0.022
  YS02001920           JUNCTION      2.87   456.63     0  02:22      0.0827       0.667       0.130
  YS02001923           JUNCTION      0.04   426.21     0  02:21     0.00109       0.567      -0.161
  YS02001926           JUNCTION      0.05   668.03     0  02:21      0.0015       0.545      -0.094
  YS02001929           JUNCTION    326.62   427.42     0  02:21       0.528       0.531      -0.142
  YS02006553           JUNCTION      0.00   679.09     0  02:35           0        1.75       0.685
  YS02006556           JUNCTION      0.00   679.59     0  02:35           0        1.75       0.462
  YS02006558           JUNCTION    773.20   977.41     0  02:24        1.06        2.79       0.122
  YS02006561           JUNCTION      0.00   976.42     0  02:23           0        2.76      -0.013
  YS02163301           JUNCTION      0.00   937.32     0  02:20           0        2.52       0.968
  YS02163601           JUNCTION      0.11  1388.24     0  02:20     0.00317         3.5       0.863
  YS02164001           JUNCTION      0.00  1389.55     0  02:20           0        3.47       0.585
  CC-1                 OUTFALL       0.00   683.00     0  00:00           0       0.208       0.000
  CC-2                 OUTFALL       0.00   683.00     0  00:00           0       0.208       0.000
  JK-1                 OUTFALL       0.00  1000.00     0  00:00           0      0.0791       0.000
  JK-2                 OUTFALL       0.00  1000.00     0  00:00           0      0.0791       0.000
  WSC                  OUTFALL       0.00   818.14     0  02:52           0        14.4       0.000
  CC-storage           STORAGE       0.00  3237.08     0  02:24           0        9.26       0.438
  JK-storage           STORAGE       0.00   979.03     0  02:23           0        2.86       0.576
  XR-storage           STORAGE     200.00   200.00     0  00:00        5.76        6.36     -41.886
  
  
  **********************
  Node Surcharge Summary
  **********************
  
  Surcharging occurs when water rises above the top of the highest conduit.
  ---------------------------------------------------------------------
                                               Max. Height   Min. Depth
                                   Hours       Above Crown    Below Rim
  Node                 Type      Surcharged         Meters       Meters
  ---------------------------------------------------------------------
  WS02006109           JUNCTION        1.44          0.016        1.804
  WS02006228           JUNCTION        1.43          0.019        2.181
  WS02006229           JUNCTION        1.45          0.028        2.422
  WS02006232           JUNCTION        1.51          0.051        1.429
  WS02006235           JUNCTION        1.45          0.056        1.234
  WS02006238           JUNCTION        1.48          0.092        1.338
  WS02006239           JUNCTION        1.46          0.069        1.221
  WS02006240           JUNCTION        1.47          0.080        1.310
  WS02006242           JUNCTION        1.56          0.175        0.645
  WS02006243           JUNCTION        1.48          0.133        0.637
  WS02006245           JUNCTION        1.48          0.146        0.704
  WS02006247           JUNCTION        1.50          0.181        0.579
  WS02006248           JUNCTION        1.48          0.138        0.242
  WS02006249           JUNCTION        1.49          0.217        0.173
  WS02006252           JUNCTION        1.93          1.100        0.000
  WS02006256           JUNCTION        3.01          2.050        0.000
  YS02001580           JUNCTION        0.37          0.450        0.000
  YS02001583           JUNCTION        0.38          0.424        0.076
  YS02001586           JUNCTION        0.50          0.510        0.000
  YS02001590           JUNCTION        0.57          0.750        0.000
  YS02001593           JUNCTION        0.58          0.764        0.076
  YS02001596           JUNCTION        0.69          1.003        0.067
  YS02001600           JUNCTION        0.92          1.190        0.000
  YS02001601           JUNCTION        6.02          1.440        0.000
  YS02001602           JUNCTION        5.96          1.270        0.000
  YS02001605           JUNCTION        5.93          1.180        0.000
  YS02001607           JUNCTION        0.64          0.650        0.030
  YS02001610           JUNCTION        0.69          0.680        0.000
  YS02001613           JUNCTION        0.65          0.669        0.031
  YS02001616           JUNCTION        0.59          0.610        0.000
  YS02001619           JUNCTION        0.56          0.610        0.000
  YS02001622           JUNCTION        0.58          0.584        0.036
  YS02001625           JUNCTION        5.56          0.780        0.000
  YS02001629           JUNCTION        0.52          0.470        0.000
  YS02001633           JUNCTION        5.76          0.997        0.063
  YS02001641           JUNCTION        5.73          0.956        0.144
  YS02001644           JUNCTION        5.72          0.920        0.000
  YS02001647           JUNCTION        5.32          0.738        0.162
  YS02001649           JUNCTION        5.66          0.952        0.098
  YS02001652           JUNCTION        4.93          0.782        0.348
  YS02001655           JUNCTION        0.26          0.611        0.589
  YS02001658           JUNCTION        0.09          0.440        0.860
  YS02001661           JUNCTION        0.01          0.148        1.242
  YS02001748           JUNCTION        0.04          0.420        0.770
  YS02001751           JUNCTION        0.14          0.537        0.663
  YS02001754           JUNCTION        1.08          0.596        0.554
  YS02001757           JUNCTION        5.65          0.950        0.260
  YS02001759           JUNCTION        5.65          0.932        0.278
  YS02001762           JUNCTION        5.65          0.922        0.228
  YS02001765           JUNCTION        5.64          0.881        0.219
  YS02001767           JUNCTION        5.64          0.872        0.158
  YS02001770           JUNCTION        5.64          0.911        0.009
  YS02001774           JUNCTION        5.64          1.035        0.015
  YS02001779           JUNCTION        0.45          0.680        0.000
  YS02001783           JUNCTION        0.56          0.708        0.892
  YS02001784           JUNCTION        0.57          0.658        0.832
  YS02001786           JUNCTION        0.56          0.499        0.931
  YS02001788           JUNCTION        0.55          0.362        1.118
  YS02001790           JUNCTION        5.82          0.518        0.639
  YS02001791           JUNCTION        5.84          0.493        1.427
  YS02001793           JUNCTION        5.86          0.832        1.768
  YS02001882           JUNCTION        0.33          0.643        0.187
  YS02001884           JUNCTION        0.34          0.684        0.186
  YS02001887           JUNCTION        0.37          0.779        0.171
  YS02001890           JUNCTION        0.38          0.760        0.000
  YS02001895           JUNCTION        0.32          0.570        0.180
  YS02001898           JUNCTION        0.32          0.536        0.204
  YS02001901           JUNCTION        0.36          0.678        0.192
  YS02001904           JUNCTION        0.35          0.640        0.210
  YS02001907           JUNCTION        0.55          0.950        0.000
  YS02001910           JUNCTION        0.40          0.949        0.151
  YS02001915           JUNCTION        0.33          0.896        0.104
  YS02001918           JUNCTION        0.25          0.810        0.000
  YS02001920           JUNCTION        0.27          1.140        0.000
  YS02001923           JUNCTION        0.01          0.820        0.000
  YS02001926           JUNCTION        0.02          0.900        0.000
  YS02001929           JUNCTION        0.01          0.780        0.000
  YS02006553           JUNCTION        0.57          0.986        0.204
  YS02006556           JUNCTION        0.48          0.925        0.425
  YS02006558           JUNCTION        0.47          0.938        0.462
  YS02006561           JUNCTION        0.29          0.316        0.834
  YS02163301           JUNCTION        5.76          0.918        0.112
  YS02163601           JUNCTION        5.77          1.046        0.034
  YS02164001           JUNCTION        5.74          0.966        0.134
  
  
  *********************
  Node Flooding Summary
  *********************
  
  Flooding refers to all water that overflows a node, whether it ponds or not.
  --------------------------------------------------------------------------
                                                             Total   Maximum
                                 Maximum   Time of Max       Flood    Ponded
                        Hours       Rate    Occurrence      Volume     Depth
  Node                 Flooded       LPS   days hr:min    10^6 ltr    Meters
  --------------------------------------------------------------------------
  WS02006252              0.01    245.63      0  00:00       0.000     0.000
  WS02006256              0.02    293.19      0  00:00       0.005     0.000
  YS02001580              0.01     69.11      0  02:17       0.000     0.000
  YS02001586              0.28    235.30      0  02:26       0.120     0.000
  YS02001590              0.01      1.36      0  02:18       0.000     0.000
  YS02001600              0.01      4.30      0  02:18       0.000     0.000
  YS02001601              0.44    870.03      0  02:25       0.690     0.000
  YS02001602              0.36     62.00      0  02:30       0.069     0.000
  YS02001605              0.01      0.31      0  02:38       0.000     0.000
  YS02001610              0.29    434.26      0  02:26       0.251     0.000
  YS02001616              0.01      2.53      0  02:21       0.000     0.000
  YS02001619              0.01      3.25      0  02:21       0.000     0.000
  YS02001625              0.28   1035.04      0  02:26       0.489     0.000
  YS02001629              0.06    122.56      0  02:24       0.015     0.000
  YS02001644              0.08    436.02      0  02:25       0.065     0.000
  YS02001779              0.05    182.86      0  02:21       0.008     0.000
  YS02001890              0.08     89.61      0  02:25       0.013     0.000
  YS02001907              0.20   1288.45      0  02:26       0.532     0.000
  YS02001918              0.01    130.24      0  02:22       0.001     0.000
  YS02001920              0.01     41.80      0  02:21       0.000     0.000
  YS02001923              0.01     64.83      0  02:21       0.000     0.000
  YS02001926              0.01    186.97      0  02:21       0.001     0.000
  YS02001929              0.01    140.29      0  02:21       0.000     0.000
  JK-storage              5.81    978.08      0  02:23       2.369     0.000
  
  
  **********************
  Storage Volume Summary
  **********************
  
  ------------------------------------------------------------------------------------------------
                         Average    Avg   Evap  Exfil     Maximum    Max    Time of Max    Maximum
                          Volume   Pcnt   Pcnt   Pcnt      Volume   Pcnt     Occurrence    Outflow
  Storage Unit           1000 m³   Full   Loss   Loss     1000 m³   Full    days hr:min        LPS
  ------------------------------------------------------------------------------------------------
  CC-storage               4.335   67.6    0.0    0.0       6.017   93.9       0  07:50    1783.53
  JK-storage               0.216   74.2    0.0    0.0       0.291  100.0       0  02:11    2300.00
  XR-storage               0.035    2.5    0.0    0.0       0.600   41.7       0  00:00     380.00
  
  
  ***********************
  Outfall Loading Summary
  ***********************
  
  -----------------------------------------------------------
                         Flow       Avg       Max       Total
                         Freq      Flow      Flow      Volume
  Outfall Node           Pcnt       LPS       LPS    10^6 ltr
  -----------------------------------------------------------
  CC-1                   1.30    683.00    683.00       0.208
  CC-2                   1.30    683.00    683.00       0.208
  JK-1                   1.21    347.46   1000.00       0.079
  JK-2                   1.21    347.46   1000.00       0.079
  WSC                   99.92    551.30    818.14      14.379
  -----------------------------------------------------------
  System                20.99   2612.22   3366.35      14.954
  
  
  ********************
  Link Flow Summary
  ********************
  
  -----------------------------------------------------------------------------
                                 Maximum  Time of Max   Maximum    Max/    Max/
                                  |Flow|   Occurrence   |Veloc|    Full    Full
  Link                 Type          LPS  days hr:min     m/sec    Flow   Depth
  -----------------------------------------------------------------------------
  1                    CONDUIT    818.14     0  02:52      3.15    0.28    0.37
  WS02001211WS02001212 CONDUIT    390.85     0  03:41      0.78    0.30    0.64
  WS02001212WS02001213 CONDUIT    392.60     0  03:40      1.32    0.61    0.45
  WS02001213WS02003059 CONDUIT    395.65     0  03:40      0.85    0.65    0.75
  WS02003059WS02003060 CONDUIT    399.94     0  03:40      0.95    0.26    0.63
  WS02003060WS02003069 CONDUIT    816.04     0  02:50      1.80    0.32    0.42
  WS02003066WSF200     CONDUIT    411.86     0  02:44      2.69    0.07    0.19
  WS02003067WS02003066 CONDUIT    411.86     0  02:44      1.04    0.13    0.38
  WS02003069WS02003072 CONDUIT    816.35     0  02:51      1.55    0.39    0.47
  WS02003072WS02003073 CONDUIT    816.34     0  02:52      1.64    1.76    0.45
  WS02004138WS02004139 CONDUIT    395.20     0  00:00      3.65    0.08    0.43
  WS02004139WS02001211 CONDUIT    381.78     0  03:41      0.91    0.48    0.59
  WS02004401WS02004402 CONDUIT    412.05     0  02:41      0.99    0.49    0.77
  WS02004402WS02004403 CONDUIT    412.08     0  02:42      0.99    0.59    0.79
  WS02004403WS02004404 CONDUIT    411.98     0  02:42      0.93    0.30    0.84
  WS02004404WS02004405 CONDUIT    412.14     0  02:42      1.10    4.04    0.88
  WS02004405WS02004406 CONDUIT    412.24     0  02:42      1.03    0.81    0.88
  WS02004406WS02004407 CONDUIT    412.07     0  02:42      0.89    0.18    0.57
  WS02004407WS02004409 CONDUIT    412.01     0  02:43      1.35    0.15    0.42
  WS02004409WS02004410 CONDUIT    411.96     0  02:43      0.88    0.53    0.58
  WS02004410WS02004411 CONDUIT    411.94     0  02:43      0.84    0.56    0.60
  WS02004411WS02004412 CONDUIT    411.92     0  02:44      0.81    0.59    0.61
  WS02004412WS02004413 CONDUIT    411.91     0  02:44      0.70    0.28    0.70
  WS02004413WS02003067 CONDUIT    411.86     0  02:44      0.96    0.18    0.53
  WS02006109WS02006110 CONDUIT    411.85     0  02:24      0.84    0.79    0.94
  WS02006110WS02006113 CONDUIT    411.95     0  02:46      1.03    0.37    0.75
  WS02006111WS02006112 CONDUIT    413.87     0  02:13      1.83    0.20    0.65
  WS02006112WS02006115 CONDUIT    412.30     0  02:40      0.70    0.24    0.78
  WS02006113WS02006111 CONDUIT    424.22     0  03:26      2.25    0.51    0.40
  WS02006115WS02006116 CONDUIT    412.18     0  02:19      0.98    0.53    0.66
  WS02006116WS02004401 CONDUIT    412.15     0  02:41      1.00    0.57    0.74
  WS02006228WS02006109 CONDUIT    411.07     0  02:24      1.06    1.80    1.00
  WS02006229WS02006228 CONDUIT    412.32     0  02:24      1.13    1.37    1.00
  WS02006230WS02006229 CONDUIT    410.86     0  02:24      1.22    9.14    1.00
  WS02006231WS02006230 CONDUIT    400.35     0  02:26      1.37    6.07    0.77
  WS02006232WS02006231 CONDUIT    400.49     0  02:53      1.08    0.84    0.92
  WS02006234WS02006232 CONDUIT    400.47     0  02:53      1.40    0.81    1.00
  WS02006235WS02006234 CONDUIT    402.22     0  02:53      1.30    4.24    0.99
  WS02006238WS02006235 CONDUIT    402.18     0  02:29      1.48    0.90    1.00
  WS02006239WS02006238 CONDUIT    401.75     0  02:29      1.21    1.29    1.00
  WS02006240WS02006239 CONDUIT    401.27     0  02:53      1.30    1.26    1.00
  WS02006242WS02006240 CONDUIT    400.86     0  02:26      1.17    1.59    1.00
  WS02006243WS02006242 CONDUIT    400.86     0  02:26      1.43    0.86    1.00
  WS02006245WS02006243 CONDUIT    401.45     0  02:56      1.45    1.19    1.00
  WS02006247WS02006245 CONDUIT    402.88     0  02:39      1.43    3.19    1.00
  WS02006248WS02006247 CONDUIT    401.29     0  02:23      1.45    0.87    1.00
  WS02006249WS02006248 CONDUIT    401.02     0  02:23      1.38    2.20    1.00
  WS02006251WS02006249 CONDUIT    462.37     0  01:46      1.99    1.33    1.00
  WS02006252WS02006251 CONDUIT    402.83     0  01:45     24.55    1.48    1.00
  WS02006256WS02006235 CONDUIT    288.91     0  00:00      4.23    3.06    1.00
  WSF200WS02003060     CONDUIT    411.87     0  02:50      1.43    0.09    0.30
  YS02001580YS02001583 CONDUIT     90.81     0  02:17      0.61    0.35    1.00
  YS02001583YS02001586 CONDUIT    148.30     0  02:17      0.66    0.22    1.00
  YS02001586YS02001590 CONDUIT    318.07     0  02:23      1.27    0.56    1.00
  YS02001590YS02001593 CONDUIT    318.06     0  02:24      1.12    2.00    1.00
  YS02001593YS02001596 CONDUIT    317.98     0  02:23      1.63    0.50    1.00
  YS02001596YS02001600 CONDUIT    318.19     0  02:30      1.13    0.62    1.00
  YS02001600YS02001601 CONDUIT    318.63     0  02:23      1.13    0.55    1.00
  YS02001601YS02001602 CONDUIT    507.93     0  02:17      1.80    1.83    1.00
  YS02001602YS02001605 CONDUIT    508.45     0  02:17      1.80   10.76    1.00
  YS02001605YS02001607 CONDUIT    508.65     0  02:17      1.80    2.79    1.00
  YS02001607YS02001610 CONDUIT    508.80     0  02:17      0.65    0.48    1.00
  YS02001610YS02001613 CONDUIT    509.34     0  02:17      0.65    0.59    1.00
  YS02001613YS02001616 CONDUIT    505.55     0  02:16      0.65    0.43    1.00
  YS02001616YS02001619 CONDUIT    492.62     0  02:17      0.66    0.86    1.00
  YS02001619YS02001622 CONDUIT    935.31     0  02:20      1.19    1.38    1.00
  YS02001622YS02001625 CONDUIT    934.84     0  02:20      1.19    0.50    1.00
  YS02001625YS02001629 CONDUIT    934.69     0  02:20      1.19    0.44    1.00
  YS02001629YS02163301 CONDUIT    937.32     0  02:20      1.19    1.15    1.00
  YS02001633YS02163601 CONDUIT   1388.13     0  02:20      1.77    1.46    1.00
  YS02001641YS02001644 CONDUIT   1387.92     0  02:20      1.77    4.49    1.00
  YS02001644YS02001647 CONDUIT   1775.03     0  02:20      2.27    1.04    1.00
  YS02001647YS02001649 CONDUIT   1768.55     0  02:21      2.33    0.93    1.00
  YS02001649YS02001757 CONDUIT   1957.98     0  02:20      2.51    1.19    1.00
  YS02001652YS02001649 CONDUIT    749.65     0  02:25      0.95    0.37    1.00
  YS02001655YS02001652 CONDUIT    748.65     0  02:25      1.26    0.36    1.00
  YS02001658YS02001655 CONDUIT    747.02     0  02:25      1.88    0.32    1.00
  YS02001661YS02001658 CONDUIT    745.60     0  02:25      2.30    0.29    1.00
  YS02001664YS02001661 CONDUIT    770.25     0  02:24      2.28    0.24    0.76
  YS02001745YS02001748 CONDUIT    545.95     0  02:23      2.10    0.21    0.87
  YS02001748YS02001751 CONDUIT    414.28     0  02:24      1.63    0.21    1.00
  YS02001751YS02001754 CONDUIT    413.07     0  02:24      1.37    0.20    1.00
  YS02001754YS02001757 CONDUIT    411.75     0  02:24      0.52    0.17    1.00
  YS02001757CaochengTiaoxuchi CONDUIT   3237.08     0  02:24      4.12    1.40    1.00
  YS02001759YS02001757 CONDUIT   1265.09     0  02:25      1.61    0.90    1.00
  YS02001762YS02001759 CONDUIT    727.09     0  02:26      0.93    0.84    1.00
  YS02001765YS02001762 CONDUIT    727.01     0  02:26      0.93    0.68    1.00
  YS02001767YS02001765 CONDUIT    727.45     0  02:26      0.93    0.91    1.00
  YS02001770YS02001767 CONDUIT    727.87     0  02:26      0.93    2.88    1.00
  YS02001774YS02001770 CONDUIT    287.52     0  02:21      0.37    0.18    1.00
  YS02001779YS02001774 CONDUIT    284.16     0  02:21      0.37    0.14    1.00
  YS02001783YS02001784 CONDUIT    976.21     0  02:23      1.94    1.35    1.00
  YS02001784YS02001785 CONDUIT    977.16     0  02:24      1.94    2.27    1.00
  YS02001786YS02001788 CONDUIT    977.59     0  02:24      1.94    1.88    1.00
  YS02001788YS02001790 CONDUIT    977.51     0  02:24      1.96    0.72    1.00
  YS02001790YS02001791 CONDUIT    978.09     0  02:24      2.29    1.06    1.00
  YS02001791YS02001793 CONDUIT    978.29     0  02:23      4.33    0.42    1.00
  YS02001793JiankangQianchi CONDUIT    979.03     0  02:23      1.54    0.08    1.00
  YS02001882YS02001884 CONDUIT     42.94     0  02:19      0.10    0.05    1.00
  YS02001884YS02001887 CONDUIT     78.26     0  02:19      0.10    0.10    1.00
  YS02001887YS02001890 CONDUIT    597.90     0  02:25      0.76    1.02    1.00
  YS02001890YS02001895 CONDUIT    514.69     0  02:26      0.66    0.24    1.00
  YS02001895YS02001898 CONDUIT    514.94     0  02:26      0.66    0.89    1.00
  YS02001898YS02001901 CONDUIT    514.86     0  02:26      0.66    0.33    1.00
  YS02001901YS02001904 CONDUIT    514.98     0  02:26      0.66    0.80    1.00
  YS02001904YS02001907 CONDUIT    516.03     0  02:26      0.66    0.18    1.00
  YS02001907YS02006553 CONDUIT    679.09     0  02:35      0.75    0.80    1.00
  YS02001910YS02001907 CONDUIT   1015.14     0  02:26      1.29    0.57    1.00
  YS02001915YS02001910 CONDUIT   1014.21     0  02:26      1.29    0.50    1.00
  YS02001918YS02001915 CONDUIT    460.90     0  02:22      0.59    0.25    1.00
  YS02001920YS02001918 CONDUIT    458.44     0  02:22      0.64    0.44    1.00
  YS02001923YS02001920 CONDUIT    453.76     0  02:22      0.71    0.20    1.00
  YS02001926YS02001923 CONDUIT    425.50     0  02:22      0.94    0.61    1.00
  YS02001929YS02001926 CONDUIT    424.65     0  02:22      1.10    0.20    1.00
  YS02006553YS02006556 CONDUIT    679.59     0  02:35      0.87    0.58    1.00
  YS02006556YS02006558 CONDUIT    683.68     0  02:35      0.87    0.54    1.00
  YS02006558YS02006561 CONDUIT    976.42     0  02:23      3.45    2.16    1.00
  YS02006561YS02001783 CONDUIT    976.29     0  02:23      1.96    0.51    1.00
  YS02163301YS02001633 CONDUIT    938.91     0  02:20      1.20    0.88    1.00
  YS02163601YS02164001 CONDUIT   1389.55     0  02:20      1.77    1.23    1.00
  YS02164001YS02001641 CONDUIT   1388.50     0  02:20      1.77    1.90    1.00
  CC-R1                PUMP       683.00     0  00:00              1.00
  CC-R2                PUMP       683.00     0  00:00              1.00
  CC-S1                PUMP       200.00     0  00:00              1.00
  CC-S2                PUMP       200.00     0  00:00              1.00
  JK-R1                PUMP      1000.00     0  00:00              1.00
  JK-R2                PUMP      1000.00     0  00:00              1.00
  JK-S                 PUMP       300.00     0  00:00              1.00
  XR-1                 PUMP        95.00     0  00:00              1.00
  XR-2                 PUMP        95.00     0  00:00              1.00
  XR-3                 PUMP        95.00     0  00:00              1.00
  XR-4                 PUMP        95.00     0  00:00              1.00
  
  
  ***************************
  Flow Classification Summary
  ***************************
  
  -------------------------------------------------------------------------------------
                      Adjusted    ---------- Fraction of Time in Flow Class ---------- 
                       /Actual         Up    Down  Sub   Sup   Up    Down  Norm  Inlet 
  Conduit               Length    Dry  Dry   Dry   Crit  Crit  Crit  Crit  Ltd   Ctrl  
  -------------------------------------------------------------------------------------
  1                       1.00   0.00  0.00  0.00  0.00  1.00  0.00  0.00  0.20  0.00
  WS02001211WS02001212    1.00   0.00  0.00  0.00  1.00  0.00  0.00  0.00  0.00  0.00
  WS02001212WS02001213    1.00   0.00  0.00  0.00  0.36  0.00  0.64  0.00  0.00  0.00
  WS02001213WS02003059    1.00   0.00  0.00  0.00  0.99  0.00  0.00  0.00  0.00  0.00
  WS02003059WS02003060    1.00   0.00  0.00  0.00  1.00  0.00  0.00  0.00  0.00  0.00
  WS02003060WS02003069    1.00   0.00  0.00  0.00  0.99  0.01  0.00  0.00  0.00  0.00
  WS02003066WSF200        1.00   0.02  0.10  0.00  0.00  0.88  0.00  0.00  0.87  0.00
  WS02003067WS02003066    1.00   0.10  0.02  0.00  0.89  0.00  0.00  0.00  0.00  0.00
  WS02003069WS02003072    1.00   0.00  0.00  0.00  0.99  0.01  0.00  0.00  0.00  0.00
  WS02003072WS02003073    1.00   0.00  0.00  0.00  0.00  0.00  0.00  1.00  0.00  0.00
  WS02004138WS02004139    1.00   0.00  0.00  0.00  0.99  0.01  0.00  0.00  1.00  0.00
  WS02004139WS02001211    1.00   0.00  0.00  0.00  1.00  0.00  0.00  0.00  0.00  0.00
  WS02004401WS02004402    1.00   0.02  0.00  0.00  0.98  0.00  0.00  0.00  0.00  0.00
  WS02004402WS02004403    1.00   0.02  0.00  0.00  0.98  0.00  0.00  0.00  0.00  0.00
  WS02004403WS02004404    1.00   0.00  0.03  0.00  0.97  0.00  0.00  0.00  0.00  0.00
  WS02004404WS02004405    1.00   0.00  0.00  0.00  1.00  0.00  0.00  0.00  0.00  0.00
  WS02004405WS02004406    1.00   0.00  0.00  0.00  1.00  0.00  0.00  0.00  0.00  0.00
  WS02004406WS02004407    1.00   0.00  0.05  0.00  0.95  0.00  0.00  0.00  0.00  0.00
  WS02004407WS02004409    1.00   0.05  0.00  0.00  0.94  0.01  0.00  0.00  0.94  0.00
  WS02004409WS02004410    1.00   0.05  0.00  0.00  0.95  0.00  0.00  0.00  0.03  0.00
  WS02004410WS02004411    1.00   0.05  0.00  0.00  0.95  0.00  0.00  0.00  0.00  0.00
  WS02004411WS02004412    1.00   0.05  0.00  0.00  0.95  0.00  0.00  0.00  0.00  0.00
  WS02004412WS02004413    1.00   0.05  0.00  0.00  0.94  0.00  0.00  0.00  0.01  0.00
  WS02004413WS02003067    1.00   0.06  0.04  0.00  0.00  0.00  0.90  0.00  0.00  0.00
  WS02006109WS02006110    1.00   0.00  0.01  0.00  0.98  0.00  0.01  0.00  0.00  0.00
  WS02006110WS02006113    1.00   0.01  0.01  0.00  0.98  0.00  0.00  0.00  0.00  0.00
  WS02006111WS02006112    1.00   0.02  0.00  0.00  0.98  0.00  0.00  0.00  0.98  0.00
  WS02006112WS02006115    1.00   0.02  0.00  0.00  0.97  0.00  0.00  0.00  0.00  0.00
  WS02006113WS02006111    1.00   0.02  0.00  0.00  0.00  0.98  0.00  0.00  0.11  0.00
  WS02006115WS02006116    1.00   0.02  0.00  0.00  0.97  0.00  0.00  0.01  0.00  0.00
  WS02006116WS02004401    1.00   0.02  0.00  0.00  0.98  0.00  0.00  0.00  0.00  0.00
  WS02006228WS02006109    1.00   0.00  0.00  0.00  1.00  0.00  0.00  0.00  0.00  0.00
  WS02006229WS02006228    1.00   0.00  0.00  0.00  0.99  0.00  0.00  0.01  0.00  0.00
  WS02006230WS02006229    1.00   0.00  0.00  0.00  0.99  0.00  0.00  0.01  0.00  0.00
  WS02006231WS02006230    1.00   0.00  0.00  0.00  0.20  0.00  0.80  0.00  0.00  0.00
  WS02006232WS02006231    1.00   0.00  0.00  0.00  0.99  0.00  0.01  0.00  0.00  0.00
  WS02006234WS02006232    1.00   0.00  0.00  0.00  1.00  0.00  0.00  0.00  0.53  0.00
  WS02006235WS02006234    1.00   0.00  0.00  0.00  0.43  0.00  0.57  0.00  0.00  0.00
  WS02006238WS02006235    1.00   0.00  0.00  0.00  1.00  0.00  0.00  0.00  0.00  0.00
  WS02006239WS02006238    1.00   0.00  0.00  0.00  1.00  0.00  0.00  0.00  0.62  0.00
  WS02006240WS02006239    1.00   0.00  0.00  0.00  0.34  0.00  0.00  0.66  0.01  0.00
  WS02006242WS02006240    1.00   0.00  0.00  0.00  0.99  0.00  0.01  0.00  0.00  0.00
  WS02006243WS02006242    1.00   0.00  0.00  0.00  0.99  0.00  0.00  0.01  0.71  0.00
  WS02006245WS02006243    1.00   0.00  0.00  0.00  0.39  0.00  0.00  0.61  0.00  0.00
  WS02006247WS02006245    1.00   0.00  0.00  0.00  0.99  0.00  0.00  0.01  0.00  0.00
  WS02006248WS02006247    1.00   0.00  0.00  0.00  0.99  0.00  0.00  0.01  0.13  0.00
  WS02006249WS02006248    1.00   0.00  0.00  0.00  0.29  0.00  0.71  0.00  0.00  0.00
  WS02006251WS02006249    1.00   0.00  0.00  0.00  1.00  0.00  0.00  0.00  0.72  0.00
  WS02006252WS02006251    1.00   0.02  0.73  0.00  0.00  0.00  0.25  0.00  0.00  0.00
  WS02006256WS02006235    1.00   0.00  0.00  0.00  1.00  0.00  0.00  0.00  0.00  0.00
  WSF200WS02003060        1.00   0.00  0.02  0.00  0.98  0.00  0.00  0.00  0.70  0.00
  YS02001580YS02001583    1.00   0.28  0.55  0.00  0.16  0.00  0.00  0.00  0.65  0.00
  YS02001583YS02001586    1.00   0.49  0.30  0.00  0.21  0.00  0.00  0.00  0.65  0.00
  YS02001586YS02001590    1.00   0.13  0.00  0.00  0.39  0.04  0.00  0.44  0.36  0.00
  YS02001590YS02001593    1.00   0.13  0.01  0.00  0.09  0.00  0.78  0.00  0.00  0.00
  YS02001593YS02001596    1.00   0.14  0.00  0.00  0.62  0.05  0.00  0.19  0.58  0.00
  YS02001596YS02001600    1.00   0.14  0.00  0.00  0.77  0.01  0.00  0.09  0.03  0.00
  YS02001600YS02001601    1.00   0.13  0.01  0.00  0.86  0.00  0.00  0.00  0.06  0.00
  YS02001601YS02001602    1.00   0.13  0.01  0.00  0.86  0.00  0.00  0.00  0.00  0.00
  YS02001602YS02001605    1.00   0.14  0.00  0.00  0.86  0.00  0.00  0.00  0.00  0.00
  YS02001605YS02001607    1.00   0.14  0.00  0.00  0.86  0.00  0.00  0.00  0.00  0.00
  YS02001607YS02001610    1.00   0.13  0.01  0.00  0.86  0.00  0.00  0.00  0.02  0.00
  YS02001610YS02001613    1.00   0.13  0.00  0.00  0.87  0.00  0.00  0.00  0.01  0.00
  YS02001613YS02001616    1.00   0.13  0.00  0.00  0.87  0.00  0.00  0.00  0.01  0.00
  YS02001616YS02001619    1.00   0.13  0.00  0.00  0.87  0.00  0.00  0.00  0.00  0.00
  YS02001619YS02001622    1.00   0.13  0.00  0.00  0.87  0.00  0.00  0.00  0.00  0.00
  YS02001622YS02001625    1.00   0.13  0.00  0.00  0.87  0.00  0.00  0.00  0.06  0.00
  YS02001625YS02001629    1.00   0.13  0.06  0.00  0.74  0.00  0.07  0.00  0.00  0.00
  YS02001629YS02163301    1.00   0.16  0.01  0.00  0.83  0.00  0.00  0.00  0.00  0.00
  YS02001633YS02163601    1.00   0.00  0.01  0.00  0.99  0.00  0.00  0.00  0.15  0.00
  YS02001641YS02001644    1.00   0.00  0.01  0.00  0.99  0.00  0.00  0.00  0.00  0.00
  YS02001644YS02001647    1.00   0.00  0.18  0.00  0.82  0.00  0.00  0.00  0.00  0.00
  YS02001647YS02001649    1.00   0.00  0.18  0.00  0.76  0.06  0.00  0.00  0.02  0.00
  YS02001649YS02001757    1.00   0.00  0.00  0.00  0.94  0.06  0.00  0.00  0.20  0.00
  YS02001652YS02001649    1.00   0.00  0.00  0.00  0.96  0.04  0.00  0.00  0.20  0.00
  YS02001655YS02001652    1.00   0.00  0.00  0.00  0.74  0.01  0.00  0.25  0.02  0.00
  YS02001658YS02001655    1.00   0.00  0.14  0.00  0.72  0.14  0.00  0.00  0.09  0.00
  YS02001661YS02001658    1.00   0.14  0.00  0.00  0.71  0.15  0.00  0.00  0.06  0.00
  YS02001664YS02001661    1.00   0.13  0.00  0.00  0.82  0.06  0.00  0.00  0.86  0.00
  YS02001745YS02001748    1.00   0.00  0.00  0.00  0.70  0.00  0.00  0.29  0.00  0.00
  YS02001748YS02001751    1.00   0.00  0.00  0.00  0.86  0.14  0.00  0.00  0.13  0.00
  YS02001751YS02001754    1.00   0.00  0.00  0.00  0.72  0.00  0.00  0.28  0.01  0.00
  YS02001754YS02001757    1.00   0.00  0.00  0.00  1.00  0.00  0.00  0.00  0.27  0.00
  YS02001757CaochengTiaoxuchi    1.00   0.00  0.00  0.00  0.99  0.01  0.00  0.00  0.25  0.00
  YS02001759YS02001757    1.00   0.00  0.00  0.00  1.00  0.00  0.00  0.00  0.08  0.00
  YS02001762YS02001759    1.00   0.00  0.00  0.00  1.00  0.00  0.00  0.00  0.05  0.00
  YS02001765YS02001762    1.00   0.00  0.00  0.00  1.00  0.00  0.00  0.00  0.17  0.00
  YS02001767YS02001765    1.00   0.00  0.00  0.00  1.00  0.00  0.00  0.00  0.00  0.00
  YS02001770YS02001767    1.00   0.00  0.00  0.00  1.00  0.00  0.00  0.00  0.00  0.00
  YS02001774YS02001770    1.00   0.00  0.13  0.00  0.86  0.00  0.00  0.00  0.04  0.00
  YS02001779YS02001774    1.00   0.00  0.00  0.00  1.00  0.00  0.00  0.00  0.20  0.00
  YS02001783YS02001784    1.00   0.00  0.19  0.00  0.81  0.00  0.00  0.00  0.00  0.00
  YS02001784YS02001785    1.00   0.00  0.00  0.00  1.00  0.00  0.00  0.00  0.18  0.00
  YS02001786YS02001788    1.00   0.00  0.00  0.00  0.94  0.06  0.00  0.00  0.00  0.00
  YS02001788YS02001790    1.00   0.00  0.00  0.00  0.93  0.07  0.00  0.00  0.22  0.00
  YS02001790YS02001791    1.00   0.00  0.00  0.00  0.75  0.25  0.00  0.00  0.05  0.00
  YS02001791YS02001793    1.00   0.00  0.00  0.00  0.74  0.26  0.00  0.00  0.01  0.00
  YS02001793JiankangQianchi    1.00   0.00  0.00  0.00  0.94  0.06  0.00  0.00  0.23  0.00
  YS02001882YS02001884    1.00   0.16  0.01  0.00  0.83  0.00  0.00  0.00  0.00  0.00
  YS02001884YS02001887    1.00   0.06  0.05  0.00  0.89  0.00  0.00  0.00  0.00  0.00
  YS02001887YS02001890    1.00   0.00  0.00  0.00  0.97  0.00  0.03  0.00  0.00  0.00
  YS02001890YS02001895    1.00   0.00  0.17  0.00  0.82  0.00  0.00  0.00  0.00  0.00
  YS02001895YS02001898    1.00   0.18  0.00  0.00  0.80  0.00  0.02  0.00  0.00  0.00
  YS02001898YS02001901    1.00   0.18  0.00  0.00  0.82  0.00  0.00  0.00  0.02  0.00
  YS02001901YS02001904    1.00   0.17  0.00  0.00  0.83  0.00  0.00  0.00  0.00  0.00
  YS02001904YS02001907    1.00   0.00  0.17  0.00  0.83  0.00  0.00  0.00  0.00  0.00
  YS02001907YS02006553    1.00   0.00  0.02  0.00  0.98  0.00  0.00  0.00  0.00  0.00
  YS02001910YS02001907    1.00   0.00  0.00  0.00  0.97  0.00  0.00  0.03  0.12  0.00
  YS02001915YS02001910    1.00   0.00  0.00  0.00  0.96  0.04  0.00  0.00  0.17  0.00
  YS02001918YS02001915    1.00   0.00  0.01  0.00  0.98  0.02  0.00  0.00  0.78  0.00
  YS02001920YS02001918    1.00   0.00  0.01  0.00  0.99  0.00  0.00  0.00  0.00  0.00
  YS02001923YS02001920    1.00   0.00  0.00  0.00  1.00  0.00  0.00  0.00  0.94  0.00
  YS02001926YS02001923    1.00   0.00  0.07  0.00  0.04  0.00  0.88  0.00  0.00  0.00
  YS02001929YS02001926    1.00   0.00  0.13  0.00  0.87  0.00  0.00  0.00  0.84  0.00
  YS02006553YS02006556    1.00   0.01  0.00  0.00  0.99  0.00  0.00  0.00  0.03  0.00
  YS02006556YS02006558    1.00   0.00  0.00  0.00  1.00  0.00  0.00  0.00  0.00  0.00
  YS02006558YS02006561    1.00   0.19  0.00  0.00  0.05  0.75  0.00  0.00  0.18  0.00
  YS02006561YS02001783    1.00   0.19  0.00  0.00  0.73  0.08  0.00  0.00  0.72  0.00
  YS02163301YS02001633    1.00   0.00  0.16  0.00  0.84  0.00  0.00  0.00  0.00  0.00
  YS02163601YS02164001    1.00   0.00  0.08  0.00  0.92  0.00  0.00  0.00  0.00  0.00
  YS02164001YS02001641    1.00   0.01  0.07  0.00  0.92  0.00  0.00  0.00  0.06  0.00
  
  
  *************************
  Conduit Surcharge Summary
  *************************
  
  ----------------------------------------------------------------------------
                                                           Hours        Hours 
                         --------- Hours Full --------   Above Full   Capacity
  Conduit                Both Ends  Upstream  Dnstream   Normal Flow   Limited
  ----------------------------------------------------------------------------
  WS02003072WS02003073        0.01      0.01      0.01      2.31         0.01
  WS02004404WS02004405        0.01      0.01      0.01      2.16         0.01
  WS02006109WS02006110        0.01      0.01      1.51      0.01         0.01
  WS02006110WS02006113        0.01      0.01      1.48      0.01         0.01
  WS02006111WS02006112        0.01      0.01      1.59      0.01         0.01
  WS02006228WS02006109        1.44      1.52      1.44      1.79         1.44
  WS02006229WS02006228        1.43      1.45      1.43      1.69         1.43
  WS02006230WS02006229        1.59      1.64      1.59      2.43         1.59
  WS02006231WS02006230        0.01      0.01      0.01      2.23         0.01
  WS02006232WS02006231        0.01      0.01      1.51      0.01         0.01
  WS02006234WS02006232        1.40      1.40      1.51      0.01         0.01
  WS02006235WS02006234        0.01      0.01      1.45      2.10         0.01
  WS02006238WS02006235        1.46      1.46      1.52      0.01         0.01
  WS02006239WS02006238        1.48      1.51      1.48      1.74         1.48
  WS02006240WS02006239        1.46      1.48      1.46      1.76         1.46
  WS02006242WS02006240        1.47      1.47      1.61      1.83         0.01
  WS02006243WS02006242        1.49      1.49      1.56      0.01         0.01
  WS02006245WS02006243        1.48      1.49      1.48      1.82         1.48
  WS02006247WS02006245        1.48      1.51      1.48      1.94         1.48
  WS02006248WS02006247        1.49      1.49      1.50      0.01         0.01
  WS02006249WS02006248        1.48      1.48      1.49      1.94         0.01
  WS02006251WS02006249        1.49      1.50      1.49      1.89         1.49
  WS02006252WS02006251        1.92      1.92      1.93      1.92         0.01
  WS02006256WS02006235        2.16      2.16      3.00      0.02         0.01
  YS02001580YS02001583        0.37      0.37      0.41      0.01         0.01
  YS02001583YS02001586        0.38      0.38      0.50      0.01         0.01
  YS02001586YS02001590        0.50      0.50      0.57      0.01         0.01
  YS02001590YS02001593        0.58      0.58      0.59      0.57         0.01
  YS02001593YS02001596        0.58      0.58      0.69      0.01         0.01
  YS02001596YS02001600        0.75      0.75      0.92      0.01         0.01
  YS02001600YS02001601        1.02      1.02      6.02      0.01         0.01
  YS02001601YS02001602        5.96      5.96      6.04      0.77         0.01
  YS02001602YS02001605        5.93      5.93      5.96      1.98         0.01
  YS02001605YS02001607        5.89      5.93      5.89      1.03         0.90
  YS02001607YS02001610        0.64      0.64      0.69      0.01         0.01
  YS02001610YS02001613        0.64      0.64      0.69      0.01         0.01
  YS02001613YS02001616        0.59      0.59      0.64      0.01         0.01
  YS02001616YS02001619        0.56      0.56      0.59      0.01         0.01
  YS02001619YS02001622        0.56      0.56      0.58      0.50         0.44
  YS02001622YS02001625        0.58      0.58      5.56      0.01         0.01
  YS02001625YS02001629        0.52      0.52      5.56      0.01         0.01
  YS02001629YS02163301        5.75      5.75      5.76      0.07         0.09
  YS02001633YS02163601        5.76      5.76      5.77      0.23         0.23
  YS02001641YS02001644        5.72      5.73      5.72      1.10         0.76
  YS02001644YS02001647        5.32      5.32      5.72      0.03         0.01
  YS02001647YS02001649        5.32      5.32      5.66      0.01         0.01
  YS02001649YS02001757        5.65      5.66      5.65      0.09         0.04
  YS02001652YS02001649        5.51      5.51      5.66      0.01         0.01
  YS02001655YS02001652        0.25      0.25      4.93      0.01         0.01
  YS02001658YS02001655        0.09      0.09      0.25      0.01         0.01
  YS02001661YS02001658        0.01      0.01      0.09      0.01         0.01
  YS02001664YS02001661        0.01      0.01      0.02      0.01         0.01
  YS02001745YS02001748        0.01      0.01      0.04      0.01         0.01
  YS02001748YS02001751        0.08      0.08      0.14      0.01         0.01
  YS02001751YS02001754        0.14      0.14      1.07      0.01         0.01
  YS02001754YS02001757        5.34      5.34      5.65      0.01         0.01
  YS02001757CaochengTiaoxuchi        5.65      5.65      5.65      0.22         0.19
  YS02001759YS02001757        5.65      5.65      5.65      0.01         0.01
  YS02001762YS02001759        5.64      5.64      5.65      0.01         0.02
  YS02001765YS02001762        5.64      5.64      5.65      0.01         0.01
  YS02001767YS02001765        5.64      5.64      5.64      0.01         0.02
  YS02001770YS02001767        5.64      5.64      5.64      0.33         0.34
  YS02001774YS02001770        5.64      5.64      5.64      0.01         0.01
  YS02001779YS02001774        0.45      0.45      5.64      0.01         0.01
  YS02001783YS02001784        0.56      0.56      0.57      0.41         0.43
  YS02001784YS02001785        0.56      0.57      0.56      0.63         0.56
  YS02001786YS02001788        0.55      0.56      0.55      0.58         0.55
  YS02001788YS02001790        0.55      0.55      5.82      0.01         0.01
  YS02001790YS02001791        5.82      5.82      5.84      0.24         0.24
  YS02001791YS02001793        5.84      5.84      5.88      0.01         0.01
  YS02001793JiankangQianchi        5.86      5.86      6.16      0.01         0.01
  YS02001882YS02001884        0.33      0.33      0.34      0.01         0.01
  YS02001884YS02001887        0.36      0.36      0.37      0.01         0.01
  YS02001887YS02001890        0.38      0.38      0.39      0.01         0.01
  YS02001890YS02001895        0.32      0.32      0.40      0.01         0.01
  YS02001895YS02001898        0.32      0.32      0.32      0.01         0.01
  YS02001898YS02001901        0.33      0.33      0.36      0.01         0.01
  YS02001901YS02001904        0.35      0.35      0.36      0.01         0.01
  YS02001904YS02001907        0.35      0.35      0.57      0.01         0.01
  YS02001907YS02006553        0.67      0.67      0.72      0.01         0.01
  YS02001910YS02001907        0.40      0.40      0.55      0.01         0.01
  YS02001915YS02001910        0.33      0.33      0.40      0.01         0.01
  YS02001918YS02001915        0.25      0.25      0.33      0.01         0.01
  YS02001920YS02001918        0.25      0.25      0.27      0.01         0.01
  YS02001923YS02001920        0.21      0.21      0.27      0.01         0.01
  YS02001926YS02001923        0.01      0.01      0.02      0.01         0.01
  YS02001929YS02001926        0.01      0.01      0.02      0.01         0.01
  YS02006553YS02006556        0.48      0.48      0.57      0.01         0.01
  YS02006556YS02006558        0.51      0.51      0.58      0.01         0.01
  YS02006558YS02006561        0.36      0.47      0.36      0.63         0.36
  YS02006561YS02001783        0.29      0.29      0.56      0.01         0.01
  YS02163301YS02001633        5.76      5.76      5.77      0.01         0.01
  YS02163601YS02164001        5.74      5.74      5.77      0.08         0.01
  YS02164001YS02001641        5.73      5.74      5.73      0.48         0.43
  
  
  ***************
  Pumping Summary
  ***************
  
  ---------------------------------------------------------------------------------------------------------
                                                  Min       Avg       Max     Total     Power    % Time Off
                        Percent   Number of      Flow      Flow      Flow    Volume     Usage    Pump Curve
  Pump                 Utilized   Start-Ups       LPS       LPS       LPS  10^6 ltr     Kw-hr    Low   High
  ---------------------------------------------------------------------------------------------------------
  CC-R1                    1.06           1      0.00    683.00    683.00     0.208      3.51    0.0  100.0
  CC-R2                    1.06           1      0.00    683.00    683.00     0.208      3.51    0.0  100.0
  CC-S1                   24.86           4      0.00    200.00    200.00     1.432      7.54    0.0   35.9
  CC-S2                   24.05           3      0.00    200.00    200.00     1.385      7.42    0.0   33.8
  JK-R1                    0.97           2      0.00    347.46   1000.00     0.078      0.47    0.0    0.0
  JK-R2                    0.97           2      0.00    347.46   1000.00     0.078      0.47    0.0    0.0
  JK-S                     0.97           2      0.00    104.30    300.00     0.023      0.44    0.0    0.0
  XR-1                   100.00           1      0.00     95.00     95.00     2.736     68.18    0.0    0.0
  XR-2                   100.00           1      0.00     95.00     95.00     2.736     68.18    0.0    0.0
  XR-3                   100.00           1      0.00     95.00     95.00     2.736     68.18    0.0    0.0
  XR-4                   100.00           1      0.00     95.00     95.00     2.736     68.18    0.0    0.0
  

  Analysis begun on:  Wed Nov  5 16:28:17 2025
  Analysis ended on:  Wed Nov  5 16:28:19 2025
  Total elapsed time: 00:00:02