
  EPA STORM WATER MANAGEMENT MODEL - VERSION 5.2 (Build 5.2.4)
  PYSWMM TOOLKIT API - VERSION v1.0 (2023-11-27)
  ------------------------------------------------------------

  WARNING 04: minimum elevation drop used for Conduit WS02004404WS02004405
  WARNING 03: negative offset ignored for Link YS02001904YS02001907
  
  ****************
  Analysis Options
  ****************
  Flow Units ............... LPS
  Process Models:
    Rainfall/Runoff ........ YES
    RDII ................... NO
    Snowmelt ............... NO
    Groundwater ............ NO
    Flow Routing ........... YES
    Ponding Allowed ........ NO
    Water Quality .......... NO
  Infiltration Method ...... HORTON
  Flow Routing Method ...... DYNWAVE
  Surcharge Method ......... EXTRAN
  Starting Date ............ 08/28/2015 08:00:00
  Ending Date .............. 08/28/2015 16:00:00
  Antecedent Dry Days ...... 8.0
  Report Time Step ......... 00:01:00
  Wet Time Step ............ 00:01:00
  Dry Time Step ............ 00:01:00
  Routing Time Step ........ 30.00 sec
  Variable Time Step ....... YES
  Maximum Trials ........... 8
  Number of Threads ........ 4
  Head Tolerance ........... 0.001500 m
  
  
  **************************        Volume         Depth
  Runoff Quantity Continuity     hectare-m            mm
  **************************     ---------       -------
  Initial LID Storage ......         0.049         1.488
  Total Precipitation ......         2.012        60.646
  Evaporation Loss .........         0.000         0.000
  Infiltration Loss ........         0.076         2.278
  Surface Runoff ...........         1.487        44.820
  Final Storage ............         0.500        15.065
  Continuity Error (%) .....        -0.046
  
  
  **************************        Volume        Volume
  Flow Routing Continuity        hectare-m      10^6 ltr
  **************************     ---------     ---------
  Dry Weather Inflow .......         0.602         6.020
  Wet Weather Inflow .......         1.487        14.868
  Groundwater Inflow .......         0.000         0.000
  RDII Inflow ..............         0.000         0.000
  External Inflow ..........         0.105         1.045
  External Outflow .........         1.507        15.071
  Flooding Loss ............         0.619         6.195
  Evaporation Loss .........         0.000         0.000
  Exfiltration Loss ........         0.000         0.000
  Initial Stored Volume ....         0.303         3.031
  Final Stored Volume ......         0.827         8.274
  Continuity Error (%) .....       -18.327
  
  
  *************************
  Highest Continuity Errors
  *************************
  Node YS02001774 (37.95%)
  Node YS02001583 (-11.92%)
  Node WS02006256 (-6.07%)
  Node YS02001884 (5.02%)
  Node YS02001754 (3.91%)
  
  
  ***************************
  Time-Step Critical Elements
  ***************************
  Link WS02001212WS02001213 (35.75%)
  Link WS02006235WS02006234 (21.88%)
  Link WS02006238WS02006235 (14.79%)
  Link YS02006556YS02006558 (7.09%)
  Link WS02003066WSF200 (5.65%)
  
  
  ********************************
  Highest Flow Instability Indexes
  ********************************
  Link WS02006113WS02006111 (40)
  Link WS02006111WS02006112 (33)
  Link WS02006238WS02006235 (32)
  Link WS02006256WS02006235 (28)
  Link WS02006110WS02006113 (25)
  
  
  *********************************
  Most Frequent Nonconverging Nodes
  *********************************
  Node CC-1 (16.87%)
  Node CC-2 (16.87%)
  Node JK-1 (16.87%)
  Node JK-2 (16.87%)
  Node WSC (16.87%)
  
  
  *************************
  Routing Time Step Summary
  *************************
  Minimum Time Step           :     0.04 sec
  Average Time Step           :     3.89 sec
  Maximum Time Step           :     6.46 sec
  % of Time in Steady State   :     0.00
  Average Iterations per Step :     3.48
  % of Steps Not Converging   :    16.87
  Time Step Frequencies       :
     30.000 - 13.228 sec      :     0.00 %
     13.228 -  5.833 sec      :    34.48 %
      5.833 -  2.572 sec      :    39.79 %
      2.572 -  1.134 sec      :    19.90 %
      1.134 -  0.500 sec      :     5.82 %
  
  
  ***************************
  Subcatchment Runoff Summary
  ***************************
  
  ------------------------------------------------------------------------------------------------------------------------------
                            Total      Total      Total      Total     Imperv       Perv      Total       Total     Peak  Runoff
                           Precip      Runon       Evap      Infil     Runoff     Runoff     Runoff      Runoff   Runoff   Coeff
  Subcatchment                 mm         mm         mm         mm         mm         mm         mm    10^6 ltr      LPS
  ------------------------------------------------------------------------------------------------------------------------------
  sub60                     60.65       0.00       0.00       1.37      40.26       4.25      44.51        0.58   396.03   0.734
  sub61                     60.65       0.00       0.00       2.10      40.23       6.33      46.56        0.85   574.83   0.768
  sub62                     60.65       0.00       0.00       0.93      42.88       2.89      45.77        1.25   782.00   0.755
  sub63                     60.65       0.00       0.00       3.82      34.46      10.57      45.03        1.02   636.34   0.743
  sub64                     60.65       0.00       0.00       1.84      39.23       5.25      44.48        1.07   633.63   0.733
  sub65                     60.65       0.00       0.00       1.69      42.34       4.79      47.13        1.30   737.50   0.777
  sub66                     60.65       0.00       0.00       4.43      33.31       9.52      42.83        2.00   933.65   0.706
  sub67                     60.65       0.00       0.00       0.93      43.97       2.98      46.95        0.87   615.41   0.774
  sub68                     60.65       0.00       0.00       1.61      38.83       4.86      43.69        1.20   782.13   0.720
  sub69                     60.65       0.00       0.00       1.46      40.77       5.75      46.52        1.72   958.54   0.767
  sub70                     60.65       0.00       0.00       4.85      32.66      12.03      44.69        1.29   540.29   0.737
  sub71                     60.65       0.00       0.00       0.86      38.96       2.61      41.57        1.09   644.15   0.685
  sub72                     60.65       0.00       0.00       0.82      42.08       2.43      44.51        0.61   328.46   0.734
  

  ***********************
  LID Performance Summary
  ***********************

  --------------------------------------------------------------------------------------------------------------------
                                         Total      Evap     Infil   Surface    Drain    Initial     Final  Continuity
                                        Inflow      Loss      Loss   Outflow   Outflow   Storage   Storage       Error
  Subcatchment      LID Control             mm        mm        mm        mm        mm        mm        mm           %
  --------------------------------------------------------------------------------------------------------------------
  sub60             GreenRoof            60.65      0.00      0.00      0.00      0.00      7.05     67.78       -0.12
  sub61             GreenRoof            60.65      0.00      0.00      0.00      0.00      7.05     67.78       -0.12
  sub62             GreenRoof            60.65      0.00      0.00      0.00      0.00      7.05     67.78       -0.12
  sub63             GreenRoof            60.65      0.00      0.00      0.00      0.00      7.05     67.78       -0.12
  sub64             GreenRoof            60.65      0.00      0.00      0.00      0.00      7.05     67.78       -0.12
  sub65             GreenRoof            60.65      0.00      0.00      0.00      0.00      7.05     67.78       -0.12
  sub66             GreenRoof            60.65      0.00      0.00      0.00      0.00      7.05     67.78       -0.12
  sub67             GreenRoof            60.65      0.00      0.00      0.00      0.00      7.05     67.78       -0.12
  sub68             GreenRoof            60.65      0.00      0.00      0.00      0.00      7.05     67.78       -0.12
  sub69             GreenRoof            60.65      0.00      0.00      0.00      0.00      7.05     67.78       -0.12
  sub70             GreenRoof            60.65      0.00      0.00      0.00      0.00      7.05     67.78       -0.12
  sub71             GreenRoof            60.65      0.00      0.00      0.00      0.00      7.05     67.78       -0.12
  sub72             GreenRoof            60.65      0.00      0.00      0.00      0.00      7.05     67.78       -0.12
  
  ******************
  Node Depth Summary
  ******************
  
  ---------------------------------------------------------------------------------
                                 Average  Maximum  Maximum  Time of Max    Reported
                                   Depth    Depth      HGL   Occurrence   Max Depth
  Node                 Type       Meters   Meters   Meters  days hr:min      Meters
  ---------------------------------------------------------------------------------
  WS02001211           JUNCTION     0.76     0.78     5.62     0  03:01        0.78
  WS02001212           JUNCTION     0.46     0.49     5.55     0  03:01        0.49
  WS02001213           JUNCTION     0.68     0.73     5.49     0  03:00        0.73
  WS02003059           JUNCTION     0.73     0.78     5.47     0  03:00        0.78
  WS02003060           JUNCTION     0.38     0.47     5.41     0  02:59        0.47
  WS02003066           JUNCTION     0.16     0.27     5.82     0  02:59        0.27
  WS02003067           JUNCTION     0.43     0.65     5.97     0  02:58        0.65
  WS02003069           JUNCTION     0.42     0.54     5.12     0  03:00        0.54
  WS02003072           JUNCTION     0.49     0.60     4.97     0  03:00        0.60
  WS02003073           JUNCTION     0.29     0.37     4.43     0  03:01        0.37
  WS02004138           JUNCTION     0.19     0.20     7.45     0  00:00        0.19
  WS02004139           JUNCTION     0.71     0.73     5.64     0  03:02        0.73
  WS02004401           JUNCTION     0.51     0.75     6.75     0  02:56        0.75
  WS02004402           JUNCTION     0.54     0.78     6.74     0  02:56        0.78
  WS02004403           JUNCTION     0.57     0.80     6.73     0  02:56        0.80
  WS02004404           JUNCTION     0.64     0.88     6.73     0  02:56        0.88
  WS02004405           JUNCTION     0.64     0.88     6.73     0  02:56        0.87
  WS02004406           JUNCTION     0.65     0.88     6.71     0  02:56        0.88
  WS02004407           JUNCTION     0.14     0.26     6.57     0  02:57        0.26
  WS02004409           JUNCTION     0.30     0.58     6.35     0  02:57        0.58
  WS02004410           JUNCTION     0.33     0.59     6.31     0  02:57        0.59
  WS02004411           JUNCTION     0.35     0.61     6.29     0  02:58        0.61
  WS02004412           JUNCTION     0.38     0.62     6.26     0  02:58        0.62
  WS02004413           JUNCTION     0.53     0.79     6.26     0  02:58        0.79
  WS02006109           JUNCTION     0.56     0.83     7.45     0  02:18        0.83
  WS02006110           JUNCTION     0.57     0.82     7.41     0  02:22        0.82
  WS02006111           JUNCTION     0.14     0.25     6.96     0  02:55        0.25
  WS02006112           JUNCTION     0.66     0.93     6.82     0  02:55        0.93
  WS02006113           JUNCTION     0.22     0.39     7.29     0  03:21        0.39
  WS02006115           JUNCTION     0.40     0.65     6.78     0  02:55        0.65
  WS02006116           JUNCTION     0.48     0.73     6.77     0  02:55        0.73
  WS02006228           JUNCTION     0.55     0.84     7.49     0  02:32        0.84
  WS02006229           JUNCTION     0.52     0.82     7.52     0  02:32        0.82
  WS02006230           JUNCTION     0.51     0.86     7.60     0  02:20        0.86
  WS02006231           JUNCTION     0.30     0.60     7.72     0  01:54        0.60
  WS02006232           JUNCTION     0.42     0.75     7.79     0  02:20        0.75
  WS02006234           JUNCTION     0.34     0.71     7.87     0  02:20        0.71
  WS02006235           JUNCTION     0.38     0.77     7.93     0  02:13        0.76
  WS02006238           JUNCTION     0.40     0.81     7.95     0  02:24        0.80
  WS02006239           JUNCTION     0.38     0.81     8.02     0  02:28        0.80
  WS02006240           JUNCTION     0.37     0.79     8.08     0  02:27        0.79
  WS02006242           JUNCTION     0.43     0.90     8.17     0  02:27        0.90
  WS02006243           JUNCTION     0.38     0.84     8.26     0  01:53        0.84
  WS02006245           JUNCTION     0.38     0.86     8.34     0  02:26        0.85
  WS02006247           JUNCTION     0.40     0.89     8.39     0  02:26        0.89
  WS02006248           JUNCTION     0.38     0.86     8.44     0  02:26        0.85
  WS02006249           JUNCTION     0.40     0.93     8.53     0  01:50        0.93
  WS02006251           JUNCTION     0.40     0.91     8.58     0  01:50        0.91
  WS02006252           JUNCTION     0.27     1.50     9.74     0  00:00        0.59
  WS02006256           JUNCTION     0.61     2.35     9.28     0  00:00        2.35
  WSF200               JUNCTION     0.13     0.25     5.48     0  02:59        0.25
  YS02001580           JUNCTION     0.10     1.05     9.59     0  01:46        0.77
  YS02001583           JUNCTION     0.13     1.14     9.64     0  01:46        0.82
  YS02001586           JUNCTION     0.22     1.13     9.30     0  01:46        1.13
  YS02001590           JUNCTION     0.33     1.40     9.26     0  01:46        1.40
  YS02001593           JUNCTION     0.27     1.46     9.32     0  01:44        1.28
  YS02001596           JUNCTION     0.55     1.79     9.21     0  01:44        1.65
  YS02001600           JUNCTION     0.78     1.87     9.00     0  01:44        1.86
  YS02001601           JUNCTION     1.03     2.06     8.90     0  01:45        2.06
  YS02001602           JUNCTION     0.94     1.87     8.77     0  01:46        1.87
  YS02001605           JUNCTION     0.91     1.78     8.68     0  01:46        1.78
  YS02001607           JUNCTION     0.90     1.68     8.53     0  01:50        1.68
  YS02001610           JUNCTION     0.94     1.68     8.48     0  01:46        1.68
  YS02001613           JUNCTION     0.90     1.66     8.50     0  02:16        1.65
  YS02001616           JUNCTION     0.84     1.61     8.52     0  01:50        1.61
  YS02001619           JUNCTION     0.82     1.61     8.54     0  01:50        1.61
  YS02001622           JUNCTION     0.83     1.57     8.47     0  01:48        1.56
  YS02001625           JUNCTION     1.08     1.78     8.38     0  01:46        1.78
  YS02001629           JUNCTION     1.10     1.85     8.40     0  01:46        1.85
  YS02001633           JUNCTION     1.18     2.06     8.51     0  01:50        2.06
  YS02001641           JUNCTION     1.16     1.96     8.40     0  01:49        1.93
  YS02001644           JUNCTION     1.16     1.92     8.35     0  01:49        1.92
  YS02001647           JUNCTION     0.97     1.80     8.41     0  01:49        1.69
  YS02001649           JUNCTION     1.13     2.04     8.43     0  01:49        1.86
  YS02001652           JUNCTION     0.96     2.03     8.63     0  01:49        1.69
  YS02001655           JUNCTION     0.76     2.17     9.02     0  01:49        1.48
  YS02001658           JUNCTION     0.54     2.30     9.44     0  01:49        1.24
  YS02001661           JUNCTION     0.35     1.24     8.65     0  01:50        1.03
  YS02001664           JUNCTION     0.06     0.61     8.53     0  01:50        0.49
  YS02001745           JUNCTION     0.24     1.39     8.90     0  01:50        0.88
  YS02001748           JUNCTION     0.57     2.27     9.35     0  01:50        2.27
  YS02001751           JUNCTION     0.72     2.20     9.08     0  01:50        2.20
  YS02001754           JUNCTION     0.93     2.20     8.81     0  01:50        2.20
  YS02001757           JUNCTION     1.21     2.21     8.47     0  01:50        2.21
  YS02001759           JUNCTION     1.13     2.07     8.43     0  01:50        2.07
  YS02001762           JUNCTION     1.10     1.99     8.39     0  01:50        1.83
  YS02001765           JUNCTION     1.06     1.95     8.40     0  01:50        1.81
  YS02001767           JUNCTION     1.04     1.92     8.41     0  01:50        1.81
  YS02001770           JUNCTION     1.04     1.95     8.44     0  01:50        1.95
  YS02001774           JUNCTION     1.10     2.05     8.47     0  01:50        2.05
  YS02001779           JUNCTION     0.87     1.68     8.37     0  01:48        1.68
  YS02001783           JUNCTION     0.50     2.26     8.40     0  01:48        1.56
  YS02001784           JUNCTION     0.54     2.17     8.24     0  01:48        1.51
  YS02001786           JUNCTION     0.54     2.08     8.11     0  01:48        1.35
  YS02001788           JUNCTION     0.55     2.03     8.01     0  01:48        1.20
  YS02001790           JUNCTION     0.79     1.96     7.60     0  01:48        1.35
  YS02001791           JUNCTION     0.88     1.77     7.24     0  01:48        1.29
  YS02001793           JUNCTION     1.34     2.04     6.88     0  01:48        1.80
  YS02001882           JUNCTION     0.32     1.80     8.52     0  01:47        1.62
  YS02001884           JUNCTION     0.41     1.87     8.49     0  01:47        1.73
  YS02001887           JUNCTION     0.49     1.89     8.43     0  01:47        1.81
  YS02001890           JUNCTION     0.51     1.81     8.32     0  01:47        1.81
  YS02001895           JUNCTION     0.29     1.59     8.34     0  01:48        1.57
  YS02001898           JUNCTION     0.30     1.61     8.35     0  01:48        1.57
  YS02001901           JUNCTION     0.41     1.71     8.32     0  01:48        1.68
  YS02001904           JUNCTION     0.39     1.67     8.30     0  01:48        1.64
  YS02001907           JUNCTION     0.70     1.96     8.25     0  01:48        1.96
  YS02001910           JUNCTION     0.50     1.97     8.48     0  01:49        1.83
  YS02001915           JUNCTION     0.32     1.91     8.63     0  01:49        1.68
  YS02001918           JUNCTION     0.17     1.81     8.88     0  01:49        1.36
  YS02001920           JUNCTION     0.25     2.14     9.15     0  01:49        1.42
  YS02001923           JUNCTION     0.13     2.03     9.29     0  01:49        1.17
  YS02001926           JUNCTION     0.16     1.90     9.35     0  01:49        0.99
  YS02001929           JUNCTION     0.09     1.78     9.47     0  01:48        1.55
  YS02006553           JUNCTION     0.70     2.13     8.41     0  01:48        1.97
  YS02006556           JUNCTION     0.68     2.28     8.59     0  01:48        1.97
  YS02006558           JUNCTION     0.72     2.38     8.64     0  01:48        2.03
  YS02006561           JUNCTION     0.18     1.95     8.61     0  01:48        1.16
  YS02163301           JUNCTION     1.12     1.93     8.45     0  01:48        1.91
  YS02163601           JUNCTION     1.21     2.05     8.45     0  01:49        2.03
  YS02164001           JUNCTION     1.15     1.97     8.43     0  01:49        1.95
  CC-1                 OUTFALL      0.00     0.00     0.00     0  00:00        0.00
  CC-2                 OUTFALL      0.00     0.00     0.00     0  00:00        0.00
  JK-1                 OUTFALL      0.00     0.00     0.00     0  00:00        0.00
  JK-2                 OUTFALL      0.00     0.00     0.00     0  00:00        0.00
  WSC                  OUTFALL      0.29     0.37     1.04     0  03:01        0.37
  CC-storage           STORAGE      1.79     2.30     7.80     0  02:32        2.30
  JK-storage           STORAGE      4.51     5.80     6.60     0  01:48        5.80
  XR-storage           STORAGE      0.31     5.00     3.00     0  00:00        4.91
  
  
  *******************
  Node Inflow Summary
  *******************
  
  -------------------------------------------------------------------------------------------------
                                  Maximum  Maximum                  Lateral       Total        Flow
                                  Lateral    Total  Time of Max      Inflow      Inflow     Balance
                                   Inflow   Inflow   Occurrence      Volume      Volume       Error
  Node                 Type           LPS      LPS  days hr:min    10^6 ltr    10^6 ltr     Percent
  -------------------------------------------------------------------------------------------------
  WS02001211           JUNCTION      7.35   389.14     0  03:34       0.212        11.1       0.348
  WS02001212           JUNCTION      0.00   390.85     0  03:36           0        11.1       0.207
  WS02001213           JUNCTION      0.00   392.62     0  03:35           0        11.1       0.238
  WS02003059           JUNCTION      0.00   395.67     0  03:35           0          11       0.328
  WS02003060           JUNCTION     16.53   816.14     0  02:59       0.476        14.5       0.148
  WS02003066           JUNCTION      0.00   411.97     0  02:58           0        3.08       0.039
  WS02003067           JUNCTION      0.00   411.97     0  02:58           0        3.08       0.130
  WS02003069           JUNCTION      0.32   816.42     0  02:59     0.00922        14.5       0.157
  WS02003072           JUNCTION      0.00   816.39     0  03:00           0        14.5       0.204
  WS02003073           JUNCTION      1.82   818.20     0  03:00      0.0524        14.5       0.219
  WS02004138           JUNCTION      0.00   380.00     0  00:00           0        10.9       0.059
  WS02004139           JUNCTION      0.32   395.52     0  00:00     0.00924        10.9       0.407
  WS02004401           JUNCTION      0.00   412.72     0  02:55           0        3.18       0.312
  WS02004402           JUNCTION      0.00   412.46     0  02:56           0        3.17       0.318
  WS02004403           JUNCTION      0.00   412.55     0  02:56           0        3.16       0.312
  WS02004404           JUNCTION      0.16   412.51     0  02:56     0.00467        3.15       0.261
  WS02004405           JUNCTION      0.04   412.45     0  02:56      0.0011        3.14       0.389
  WS02004406           JUNCTION      0.00   412.60     0  02:56           0        3.13       0.652
  WS02004407           JUNCTION      0.00   412.31     0  02:57           0        3.11       0.029
  WS02004409           JUNCTION      0.00   412.23     0  02:57           0        3.11       0.071
  WS02004410           JUNCTION      0.00   412.18     0  02:57           0        3.11       0.125
  WS02004411           JUNCTION      0.00   412.08     0  02:57           0         3.1       0.164
  WS02004412           JUNCTION      0.00   412.07     0  02:58           0         3.1       0.225
  WS02004413           JUNCTION      0.00   412.03     0  02:58           0        3.09       0.405
  WS02006109           JUNCTION      1.23   411.79     0  02:55      0.0354        3.22       0.243
  WS02006110           JUNCTION      0.00   411.79     0  02:55           0        3.21       0.193
  WS02006111           JUNCTION      0.00   423.44     0  01:54           0         3.2       0.026
  WS02006112           JUNCTION      0.00   414.42     0  02:55           0         3.2       0.545
  WS02006113           JUNCTION      0.00   412.29     0  02:55           0        3.21       0.043
  WS02006115           JUNCTION      0.00   413.34     0  02:55           0        3.19       0.195
  WS02006116           JUNCTION      0.00   412.97     0  02:55           0        3.18       0.142
  WS02006228           JUNCTION      0.00   410.57     0  02:55           0        3.19       0.087
  WS02006229           JUNCTION      0.00   410.58     0  02:55           0        3.19       0.139
  WS02006230           JUNCTION     10.28   410.56     0  02:20       0.296         3.2       0.186
  WS02006231           JUNCTION      0.00   400.47     0  02:20           0         2.9      -0.108
  WS02006232           JUNCTION      0.00   400.45     0  02:20           0        2.91       0.283
  WS02006234           JUNCTION      0.00   401.34     0  02:06           0         2.9      -0.187
  WS02006235           JUNCTION      0.00   402.18     0  02:27           0        2.92       0.247
  WS02006238           JUNCTION      0.00   401.82     0  02:17           0         2.9      -0.218
  WS02006239           JUNCTION      0.00   401.23     0  02:18           0        2.88      -0.167
  WS02006240           JUNCTION      0.00   401.11     0  02:28           0        2.88      -0.051
  WS02006242           JUNCTION      0.00   401.47     0  02:31           0        2.88       0.006
  WS02006243           JUNCTION      0.00   401.03     0  01:48           0        2.88       0.027
  WS02006245           JUNCTION      0.00   403.72     0  02:29           0        2.89       0.337
  WS02006247           JUNCTION      0.00   400.92     0  01:56           0        2.89       0.016
  WS02006248           JUNCTION      0.00   401.09     0  02:10           0        2.89       0.094
  WS02006249           JUNCTION      0.00   458.97     0  00:00           0         2.9       0.238
  WS02006251           JUNCTION      0.08   401.18     0  01:49     0.00222         2.9      -0.004
  WS02006252           JUNCTION      0.00   400.00     0  00:00           0        2.89      -0.031
  WS02006256           JUNCTION      0.00   300.00     0  00:00           0      0.0242      -5.721
  WSF200               JUNCTION      0.00   411.97     0  02:59           0        3.07       0.018
  YS02001580           JUNCTION      0.00   141.98     0  01:46           0     0.00443       1.782
  YS02001583           JUNCTION      0.00   240.31     0  01:46           0      0.0148     -10.653
  YS02001586           JUNCTION    540.29   540.29     0  01:53        1.29         1.3       0.120
  YS02001590           JUNCTION      0.00   318.12     0  01:57           0        1.13       0.042
  YS02001593           JUNCTION      0.00   318.14     0  01:57           0        1.13       0.020
  YS02001596           JUNCTION      0.00   318.17     0  01:57           0        1.13       0.337
  YS02001600           JUNCTION      0.00   318.36     0  01:52           0        1.12       0.713
  YS02001601           JUNCTION    958.54  1276.02     0  01:51        1.72        2.84       0.307
  YS02001602           JUNCTION      0.00   558.62     0  01:45           0        1.94       0.478
  YS02001605           JUNCTION      0.00   558.24     0  01:45           0        1.83       0.764
  YS02001607           JUNCTION      0.00   558.66     0  01:45           0        1.81       1.197
  YS02001610           JUNCTION      0.00   541.34     0  01:46           0        1.82       1.274
  YS02001613           JUNCTION      0.00   548.37     0  01:46           0        1.48       1.645
  YS02001616           JUNCTION      0.00   554.36     0  01:46           0        1.46       1.522
  YS02001619           JUNCTION    933.65   969.53     0  01:46           2        3.41       0.642
  YS02001622           JUNCTION      0.00   946.90     0  01:46           0        3.36       0.885
  YS02001625           JUNCTION      0.00  1037.10     0  01:53           0        3.36       1.337
  YS02001629           JUNCTION      0.00   941.66     0  01:46           0        2.74       0.835
  YS02001633           JUNCTION    737.70  1452.48     0  01:47         1.3        3.94       0.819
  YS02001641           JUNCTION      0.00  1452.80     0  01:47           0        3.83       0.546
  YS02001644           JUNCTION    633.67  1932.39     0  01:47        1.07        4.88       0.534
  YS02001647           JUNCTION      0.00  1933.72     0  01:47           0         4.8       0.578
  YS02001649           JUNCTION      0.00  2209.96     0  01:48           0        5.75       0.648
  YS02001652           JUNCTION      0.00   811.09     0  01:51           0       0.999       2.342
  YS02001655           JUNCTION      0.15   811.01     0  01:51     0.00443        1.02       2.247
  YS02001658           JUNCTION      0.00   810.36     0  01:51           0        1.06       0.892
  YS02001661           JUNCTION      0.00   770.01     0  01:50           0        1.06       0.682
  YS02001664           JUNCTION    636.34   636.34     0  01:50        1.02        1.02      -0.042
  YS02001745           JUNCTION    396.04   577.22     0  01:49       0.585        0.62       0.732
  YS02001748           JUNCTION      0.04   586.60     0  01:49      0.0013       0.626       1.936
  YS02001751           JUNCTION      0.01   587.84     0  01:50    0.000317       0.595       3.702
  YS02001754           JUNCTION      0.26   591.68     0  01:50     0.00749       0.589       4.067
  YS02001757           JUNCTION      0.00  3460.95     0  01:50           0         8.2       1.176
  YS02001759           JUNCTION    574.87  1371.39     0  01:49       0.856        1.98       1.163
  YS02001762           JUNCTION      0.00   806.93     0  01:49           0        1.14       1.862
  YS02001765           JUNCTION      0.00   801.83     0  01:49           0        1.16       2.139
  YS02001767           JUNCTION      0.54   795.94     0  01:49      0.0154         1.2       3.022
  YS02001770           JUNCTION    782.16   782.16     0  01:50        1.26        1.27       2.537
  YS02001774           JUNCTION      0.00   459.38     0  01:48           0      0.0647      61.173
  YS02001779           JUNCTION      0.01   446.33     0  01:48    0.000144      0.0294      97.540
  YS02001783           JUNCTION      0.00  1117.35     0  01:48           0        3.15       0.222
  YS02001784           JUNCTION      1.06  1117.74     0  01:48      0.0305        3.17       0.336
  YS02001786           JUNCTION      0.06  1117.38     0  01:48     0.00162        3.17       0.424
  YS02001788           JUNCTION      0.07  1104.86     0  01:48     0.00204        3.15       0.426
  YS02001790           JUNCTION      0.15  1058.04     0  01:48     0.00446        3.15       0.540
  YS02001791           JUNCTION      0.00  1062.61     0  01:48           0        3.13       0.462
  YS02001793           JUNCTION      0.00  1071.11     0  01:48           0        3.11       0.500
  YS02001882           JUNCTION      0.00    91.93     0  01:47           0      0.0125       5.015
  YS02001884           JUNCTION      0.00   125.47     0  01:47           0      0.0484       5.290
  YS02001887           JUNCTION    615.86   616.46     0  01:50       0.886        0.92       0.464
  YS02001890           JUNCTION      0.00   617.41     0  01:50           0       0.879       0.580
  YS02001895           JUNCTION      0.00   562.39     0  01:47           0       0.856       0.193
  YS02001898           JUNCTION      0.00   569.71     0  01:47           0       0.855       0.012
  YS02001901           JUNCTION      0.00   579.27     0  01:47           0       0.857       0.382
  YS02001904           JUNCTION      0.00   583.40     0  01:47           0       0.862       0.295
  YS02001907           JUNCTION      0.00  1614.75     0  01:50           0        2.64       0.683
  YS02001910           JUNCTION      0.00  1098.42     0  01:50           0        1.78       0.401
  YS02001915           JUNCTION    644.17  1098.34     0  01:50        1.09        1.83       0.066
  YS02001918           JUNCTION      0.00   604.08     0  01:48           0       0.775      -0.049
  YS02001920           JUNCTION      2.87   567.26     0  01:48      0.0827       0.754       0.054
  YS02001923           JUNCTION      0.04   797.89     0  01:48     0.00109       0.654      -0.275
  YS02001926           JUNCTION      0.05  1078.69     0  01:48      0.0015       0.634      -0.132
  YS02001929           JUNCTION    328.46   869.72     0  01:48       0.612       0.617      -0.260
  YS02006553           JUNCTION      0.00   670.73     0  02:06           0        1.97       0.597
  YS02006556           JUNCTION      0.00   671.49     0  02:06           0        1.98       0.385
  YS02006558           JUNCTION    783.01  1182.26     0  01:48        1.23        3.18       0.117
  YS02006561           JUNCTION      0.00  1181.48     0  01:48           0        3.15      -0.014
  YS02163301           JUNCTION      0.00   921.01     0  01:47           0         2.7       0.896
  YS02163601           JUNCTION      0.11  1453.04     0  01:47     0.00317        3.87       0.773
  YS02164001           JUNCTION      0.00  1450.93     0  01:47           0        3.84       0.515
  CC-1                 OUTFALL       0.00   683.00     0  00:00           0       0.208       0.000
  CC-2                 OUTFALL       0.00   683.00     0  00:00           0       0.208       0.000
  JK-1                 OUTFALL       0.00  1000.00     0  00:00           0      0.0791       0.000
  JK-2                 OUTFALL       0.00  1000.00     0  00:00           0      0.0791       0.000
  WSC                  OUTFALL       0.00   818.18     0  03:01           0        14.5       0.000
  CC-storage           STORAGE       0.00  3462.05     0  01:50           0        10.3       0.414
  JK-storage           STORAGE       0.00  1076.39     0  01:48           0        3.25       0.468
  XR-storage           STORAGE     200.00   200.00     0  00:00        5.76        6.36     -41.886
  
  
  **********************
  Node Surcharge Summary
  **********************
  
  Surcharging occurs when water rises above the top of the highest conduit.
  ---------------------------------------------------------------------
                                               Max. Height   Min. Depth
                                   Hours       Above Crown    Below Rim
  Node                 Type      Surcharged         Meters       Meters
  ---------------------------------------------------------------------
  WS02006109           JUNCTION        1.68          0.015        1.805
  WS02006228           JUNCTION        1.68          0.014        2.186
  WS02006229           JUNCTION        1.70          0.025        2.425
  WS02006232           JUNCTION        1.75          0.050        1.430
  WS02006235           JUNCTION        1.69          0.057        1.233
  WS02006238           JUNCTION        1.72          0.088        1.342
  WS02006239           JUNCTION        1.70          0.068        1.222
  WS02006240           JUNCTION        1.70          0.079        1.311
  WS02006242           JUNCTION        1.78          0.175        0.645
  WS02006243           JUNCTION        1.72          0.133        0.637
  WS02006245           JUNCTION        1.72          0.146        0.704
  WS02006247           JUNCTION        1.73          0.181        0.579
  WS02006248           JUNCTION        1.71          0.137        0.243
  WS02006249           JUNCTION        1.73          0.233        0.157
  WS02006252           JUNCTION        2.01          1.100        0.000
  WS02006256           JUNCTION        2.92          2.050        0.000
  YS02001580           JUNCTION        0.47          0.450        0.000
  YS02001583           JUNCTION        0.47          0.500        0.000
  YS02001586           JUNCTION        0.69          0.510        0.000
  YS02001590           JUNCTION        0.80          0.750        0.000
  YS02001593           JUNCTION        0.81          0.840        0.000
  YS02001596           JUNCTION        1.02          1.059        0.011
  YS02001600           JUNCTION        1.53          1.190        0.000
  YS02001601           JUNCTION        6.40          1.440        0.000
  YS02001602           JUNCTION        6.37          1.270        0.000
  YS02001605           JUNCTION        6.35          1.180        0.000
  YS02001607           JUNCTION        1.29          0.677        0.003
  YS02001610           JUNCTION        4.83          0.680        0.000
  YS02001613           JUNCTION        1.29          0.661        0.039
  YS02001616           JUNCTION        1.12          0.610        0.000
  YS02001619           JUNCTION        1.07          0.610        0.000
  YS02001622           JUNCTION        1.14          0.570        0.050
  YS02001625           JUNCTION        6.25          0.780        0.000
  YS02001629           JUNCTION        1.02          0.470        0.000
  YS02001633           JUNCTION        6.26          1.040        0.020
  YS02001641           JUNCTION        6.25          0.962        0.138
  YS02001644           JUNCTION        6.24          0.920        0.000
  YS02001647           JUNCTION        6.20          0.802        0.098
  YS02001649           JUNCTION        6.20          1.036        0.014
  YS02001652           JUNCTION        6.19          1.002        0.128
  YS02001655           JUNCTION        0.96          1.175        0.025
  YS02001658           JUNCTION        0.09          1.300        0.000
  YS02001661           JUNCTION        0.01          0.173        1.217
  YS02001745           JUNCTION        0.01          0.386        0.964
  YS02001748           JUNCTION        0.01          1.190        0.000
  YS02001751           JUNCTION        0.43          1.200        0.000
  YS02001754           JUNCTION        6.18          1.150        0.000
  YS02001757           JUNCTION        6.20          1.210        0.000
  YS02001759           JUNCTION        6.19          1.068        0.142
  YS02001762           JUNCTION        6.19          0.994        0.156
  YS02001765           JUNCTION        6.19          0.950        0.150
  YS02001767           JUNCTION        6.19          0.917        0.113
  YS02001770           JUNCTION        6.19          0.920        0.000
  YS02001774           JUNCTION        6.19          1.050        0.000
  YS02001779           JUNCTION        6.19          0.680        0.000
  YS02001783           JUNCTION        0.57          1.458        0.142
  YS02001784           JUNCTION        0.57          1.372        0.118
  YS02001786           JUNCTION        0.55          1.276        0.154
  YS02001788           JUNCTION        0.55          1.234        0.246
  YS02001790           JUNCTION        6.20          1.157        0.000
  YS02001791           JUNCTION        6.20          0.972        0.948
  YS02001793           JUNCTION        6.21          1.043        1.557
  YS02001882           JUNCTION        0.42          0.801        0.029
  YS02001884           JUNCTION        0.43          0.812        0.058
  YS02001887           JUNCTION        0.46          0.839        0.111
  YS02001890           JUNCTION        0.47          0.760        0.000
  YS02001895           JUNCTION        0.41          0.591        0.159
  YS02001898           JUNCTION        0.40          0.583        0.157
  YS02001901           JUNCTION        0.45          0.714        0.156
  YS02001904           JUNCTION        0.44          0.669        0.181
  YS02001907           JUNCTION        0.63          0.950        0.000
  YS02001910           JUNCTION        0.49          0.972        0.128
  YS02001915           JUNCTION        0.42          0.912        0.088
  YS02001918           JUNCTION        0.33          0.810        0.000
  YS02001920           JUNCTION        0.34          1.140        0.000
  YS02001923           JUNCTION        0.01          0.820        0.000
  YS02001926           JUNCTION        0.02          0.900        0.000
  YS02001929           JUNCTION        0.01          0.780        0.000
  YS02006553           JUNCTION        0.64          1.125        0.065
  YS02006556           JUNCTION        0.56          1.238        0.112
  YS02006558           JUNCTION        0.56          1.278        0.122
  YS02006561           JUNCTION        0.36          1.150        0.000
  YS02163301           JUNCTION        6.25          0.929        0.101
  YS02163601           JUNCTION        6.26          1.051        0.029
  YS02164001           JUNCTION        6.25          0.969        0.131
  
  
  *********************
  Node Flooding Summary
  *********************
  
  Flooding refers to all water that overflows a node, whether it ponds or not.
  --------------------------------------------------------------------------
                                                             Total   Maximum
                                 Maximum   Time of Max       Flood    Ponded
                        Hours       Rate    Occurrence      Volume     Depth
  Node                 Flooded       LPS   days hr:min    10^6 ltr    Meters
  --------------------------------------------------------------------------
  WS02006252              0.01    245.63      0  00:00       0.000     0.000
  WS02006256              0.02    293.19      0  00:00       0.005     0.000
  YS02001580              0.01     53.34      0  01:46       0.000     0.000
  YS02001583              0.01    161.04      0  01:46       0.000     0.000
  YS02001586              0.36    222.94      0  01:53       0.164     0.000
  YS02001590              0.01      4.89      0  01:46       0.000     0.000
  YS02001593              0.01     41.39      0  01:44       0.000     0.000
  YS02001600              0.01      3.19      0  01:46       0.000     0.000
  YS02001601              0.59    878.13      0  01:51       0.883     0.000
  YS02001602              0.59     62.25      0  02:12       0.110     0.000
  YS02001605              0.01      3.23      0  01:46       0.000     0.000
  YS02001610              0.44    426.37      0  01:53       0.340     0.000
  YS02001616              0.01      0.77      0  01:50       0.000     0.000
  YS02001619              0.01      1.40      0  01:50       0.000     0.000
  YS02001625              0.44   1036.78      0  01:53       0.621     0.000
  YS02001629              0.07    254.48      0  01:46       0.022     0.000
  YS02001644              0.06    390.84      0  01:50       0.041     0.000
  YS02001658              0.01    369.67      0  01:49       0.000     0.000
  YS02001748              0.01     14.25      0  01:50       0.000     0.000
  YS02001751              0.01     11.96      0  01:50       0.000     0.000
  YS02001754              0.01     49.49      0  01:50       0.000     0.000
  YS02001757              0.01     34.01      0  01:50       0.000     0.000
  YS02001770              0.01      7.10      0  01:50       0.000     0.000
  YS02001774              0.01      5.21      0  01:50       0.000     0.000
  YS02001779              0.03    396.81      0  01:48       0.009     0.000
  YS02001790              0.01     35.12      0  01:48       0.000     0.000
  YS02001890              0.08    101.92      0  01:50       0.018     0.000
  YS02001907              0.27   1425.38      0  01:50       0.656     0.000
  YS02001918              0.01    318.16      0  01:49       0.005     0.000
  YS02001920              0.01    136.93      0  01:49       0.001     0.000
  YS02001923              0.01    220.56      0  01:49       0.001     0.000
  YS02001926              0.01    328.41      0  01:49       0.002     0.000
  YS02001929              0.01    499.98      0  01:48       0.001     0.000
  YS02006561              0.01    152.00      0  01:48       0.000     0.000
  CC-storage              3.44    571.53      0  02:32       0.554     0.000
  JK-storage              6.19   1071.20      0  01:48       2.761     0.000
  
  
  **********************
  Storage Volume Summary
  **********************
  
  ------------------------------------------------------------------------------------------------
                         Average    Avg   Evap  Exfil     Maximum    Max    Time of Max    Maximum
                          Volume   Pcnt   Pcnt   Pcnt      Volume   Pcnt     Occurrence    Outflow
  Storage Unit           1000 m³   Full   Loss   Loss     1000 m³   Full    days hr:min        LPS
  ------------------------------------------------------------------------------------------------
  CC-storage               4.983   77.7    0.0    0.0       6.410  100.0       0  02:32    1783.53
  JK-storage               0.227   77.8    0.0    0.0       0.291  100.0       0  01:48    2300.00
  XR-storage               0.037    2.6    0.0    0.0       0.600   41.7       0  00:00     380.00
  
  
  ***********************
  Outfall Loading Summary
  ***********************
  
  -----------------------------------------------------------
                         Flow       Avg       Max       Total
                         Freq      Flow      Flow      Volume
  Outfall Node           Pcnt       LPS       LPS    10^6 ltr
  -----------------------------------------------------------
  CC-1                   1.38    683.00    683.00       0.208
  CC-2                   1.38    683.00    683.00       0.208
  JK-1                   1.28    347.46   1000.00       0.079
  JK-2                   1.28    347.46   1000.00       0.079
  WSC                   99.92    558.98    818.18      14.496
  -----------------------------------------------------------
  System                21.05   2619.91   3366.35      15.071
  
  
  ********************
  Link Flow Summary
  ********************
  
  -----------------------------------------------------------------------------
                                 Maximum  Time of Max   Maximum    Max/    Max/
                                  |Flow|   Occurrence   |Veloc|    Full    Full
  Link                 Type          LPS  days hr:min     m/sec    Flow   Depth
  -----------------------------------------------------------------------------
  1                    CONDUIT    818.18     0  03:01      3.15    0.28    0.37
  WS02001211WS02001212 CONDUIT    390.85     0  03:36      0.78    0.30    0.64
  WS02001212WS02001213 CONDUIT    392.62     0  03:35      1.32    0.61    0.45
  WS02001213WS02003059 CONDUIT    395.67     0  03:35      0.85    0.65    0.75
  WS02003059WS02003060 CONDUIT    399.93     0  03:35      0.95    0.26    0.63
  WS02003060WS02003069 CONDUIT    816.10     0  02:59      1.80    0.32    0.42
  WS02003066WSF200     CONDUIT    411.97     0  02:59      2.69    0.07    0.19
  WS02003067WS02003066 CONDUIT    411.97     0  02:58      1.04    0.13    0.38
  WS02003069WS02003072 CONDUIT    816.39     0  03:00      1.55    0.39    0.47
  WS02003072WS02003073 CONDUIT    816.38     0  03:00      1.64    1.76    0.45
  WS02004138WS02004139 CONDUIT    395.20     0  00:00      3.65    0.08    0.43
  WS02004139WS02001211 CONDUIT    381.79     0  03:34      0.91    0.48    0.59
  WS02004401WS02004402 CONDUIT    412.46     0  02:56      0.99    0.50    0.77
  WS02004402WS02004403 CONDUIT    412.55     0  02:56      0.99    0.59    0.79
  WS02004403WS02004404 CONDUIT    412.35     0  02:56      0.93    0.30    0.84
  WS02004404WS02004405 CONDUIT    412.41     0  02:56      1.10    4.04    0.88
  WS02004405WS02004406 CONDUIT    412.60     0  02:56      1.03    0.81    0.88
  WS02004406WS02004407 CONDUIT    412.31     0  02:57      0.89    0.18    0.57
  WS02004407WS02004409 CONDUIT    412.23     0  02:57      1.42    0.15    0.42
  WS02004409WS02004410 CONDUIT    412.18     0  02:57      0.92    0.53    0.58
  WS02004410WS02004411 CONDUIT    412.08     0  02:57      0.85    0.56    0.60
  WS02004411WS02004412 CONDUIT    412.07     0  02:58      0.81    0.59    0.61
  WS02004412WS02004413 CONDUIT    412.03     0  02:58      0.70    0.28    0.70
  WS02004413WS02003067 CONDUIT    411.97     0  02:58      0.96    0.18    0.54
  WS02006109WS02006110 CONDUIT    411.79     0  02:55      0.84    0.79    0.94
  WS02006110WS02006113 CONDUIT    412.29     0  02:55      1.03    0.38    0.75
  WS02006111WS02006112 CONDUIT    414.42     0  02:55      1.83    0.20    0.65
  WS02006112WS02006115 CONDUIT    413.34     0  02:55      0.71    0.24    0.78
  WS02006113WS02006111 CONDUIT    423.44     0  01:54      2.25    0.51    0.40
  WS02006115WS02006116 CONDUIT    412.97     0  02:55      0.98    0.53    0.66
  WS02006116WS02004401 CONDUIT    412.72     0  02:55      1.00    0.57    0.74
  WS02006228WS02006109 CONDUIT    410.56     0  02:55      1.06    1.79    1.00
  WS02006229WS02006228 CONDUIT    410.57     0  02:55      1.13    1.36    1.00
  WS02006230WS02006229 CONDUIT    410.58     0  02:55      1.22    9.14    1.00
  WS02006231WS02006230 CONDUIT    400.28     0  02:20      1.37    6.07    0.77
  WS02006232WS02006231 CONDUIT    400.47     0  02:20      1.08    0.84    0.92
  WS02006234WS02006232 CONDUIT    400.45     0  02:20      1.40    0.81    1.00
  WS02006235WS02006234 CONDUIT    401.34     0  02:06      1.29    4.23    0.99
  WS02006238WS02006235 CONDUIT    402.18     0  02:27      1.54    0.90    1.00
  WS02006239WS02006238 CONDUIT    401.82     0  02:17      1.21    1.29    1.00
  WS02006240WS02006239 CONDUIT    401.23     0  02:18      1.30    1.26    1.00
  WS02006242WS02006240 CONDUIT    401.11     0  02:28      1.17    1.59    1.00
  WS02006243WS02006242 CONDUIT    401.47     0  02:31      1.41    0.86    1.00
  WS02006245WS02006243 CONDUIT    401.03     0  01:48      1.45    1.19    1.00
  WS02006247WS02006245 CONDUIT    403.72     0  02:29      1.43    3.20    1.00
  WS02006248WS02006247 CONDUIT    400.92     0  01:56      1.45    0.87    1.00
  WS02006249WS02006248 CONDUIT    401.09     0  02:10      1.39    2.20    1.00
  WS02006251WS02006249 CONDUIT    458.97     0  00:00      1.99    1.32    1.00
  WS02006252WS02006251 CONDUIT    401.11     0  01:49     24.55    1.47    1.00
  WS02006256WS02006235 CONDUIT    288.91     0  00:00      4.23    3.06    1.00
  WSF200WS02003060     CONDUIT    411.98     0  02:59      1.43    0.09    0.30
  YS02001580YS02001583 CONDUIT    141.98     0  01:46      0.83    0.55    1.00
  YS02001583YS02001586 CONDUIT    193.84     0  01:46      0.83    0.29    1.00
  YS02001586YS02001590 CONDUIT    318.12     0  01:57      1.28    0.56    1.00
  YS02001590YS02001593 CONDUIT    318.14     0  01:57      1.13    2.00    1.00
  YS02001593YS02001596 CONDUIT    318.17     0  01:57      1.62    0.50    1.00
  YS02001596YS02001600 CONDUIT    318.36     0  01:52      1.13    0.62    1.00
  YS02001600YS02001601 CONDUIT    318.16     0  01:52      1.13    0.55    1.00
  YS02001601YS02001602 CONDUIT    558.62     0  01:45      1.98    2.02    1.00
  YS02001602YS02001605 CONDUIT    558.24     0  01:45      1.97   11.81    1.00
  YS02001605YS02001607 CONDUIT    558.66     0  01:45      1.98    3.06    1.00
  YS02001607YS02001610 CONDUIT    541.34     0  01:46      0.69    0.51    1.00
  YS02001610YS02001613 CONDUIT    548.37     0  01:46      0.70    0.63    1.00
  YS02001613YS02001616 CONDUIT    554.36     0  01:46      0.71    0.48    1.00
  YS02001616YS02001619 CONDUIT    518.15     0  01:46      0.66    0.90    1.00
  YS02001619YS02001622 CONDUIT    946.90     0  01:46      1.24    1.40    1.00
  YS02001622YS02001625 CONDUIT    940.44     0  01:46      1.20    0.50    1.00
  YS02001625YS02001629 CONDUIT    941.66     0  01:46      1.20    0.45    1.00
  YS02001629YS02163301 CONDUIT    921.01     0  01:47      1.17    1.13    1.00
  YS02001633YS02163601 CONDUIT   1452.93     0  01:47      1.85    1.53    1.00
  YS02001641YS02001644 CONDUIT   1452.91     0  01:47      1.85    4.70    1.00
  YS02001644YS02001647 CONDUIT   1933.72     0  01:47      2.47    1.14    1.00
  YS02001647YS02001649 CONDUIT   1914.20     0  01:48      2.44    1.01    1.00
  YS02001649YS02001757 CONDUIT   2211.52     0  01:48      2.82    1.34    1.00
  YS02001652YS02001649 CONDUIT    812.70     0  01:51      1.03    0.40    1.00
  YS02001655YS02001652 CONDUIT    811.09     0  01:51      1.41    0.39    1.00
  YS02001658YS02001655 CONDUIT    810.85     0  01:51      2.00    0.34    1.00
  YS02001661YS02001658 CONDUIT    810.36     0  01:51      2.45    0.32    1.00
  YS02001664YS02001661 CONDUIT    770.01     0  01:50      2.47    0.24    0.80
  YS02001745YS02001748 CONDUIT    583.44     0  01:50      2.31    0.22    1.00
  YS02001748YS02001751 CONDUIT    587.83     0  01:50      1.80    0.30    1.00
  YS02001751YS02001754 CONDUIT    591.42     0  01:50      1.51    0.29    1.00
  YS02001754YS02001757 CONDUIT    595.96     0  01:50      0.76    0.24    1.00
  YS02001757CaochengTiaoxuchi CONDUIT   3462.05     0  01:50      4.44    1.50    1.00
  YS02001759YS02001757 CONDUIT   1371.81     0  01:49      1.75    0.97    1.00
  YS02001762YS02001759 CONDUIT    810.72     0  01:49      1.03    0.93    1.00
  YS02001765YS02001762 CONDUIT    806.93     0  01:49      1.03    0.76    1.00
  YS02001767YS02001765 CONDUIT    801.83     0  01:49      1.02    1.01    1.00
  YS02001770YS02001767 CONDUIT    795.41     0  01:49      1.01    3.15    1.00
  YS02001774YS02001770 CONDUIT    459.38     0  01:48      0.58    0.29    1.00
  YS02001779YS02001774 CONDUIT    446.33     0  01:48      0.57    0.22    1.00
  YS02001783YS02001784 CONDUIT   1116.68     0  01:48      2.22    1.54    1.00
  YS02001784YS02001785 CONDUIT   1117.32     0  01:48      2.23    2.60    1.00
  YS02001786YS02001788 CONDUIT   1104.79     0  01:48      2.39    2.13    1.00
  YS02001788YS02001790 CONDUIT   1057.88     0  01:48      2.45    0.78    1.00
  YS02001790YS02001791 CONDUIT   1062.61     0  01:48      2.91    1.16    1.00
  YS02001791YS02001793 CONDUIT   1071.11     0  01:48      5.70    0.46    1.00
  YS02001793JiankangQianchi CONDUIT   1076.39     0  01:48      1.57    0.09    1.00
  YS02001882YS02001884 CONDUIT     91.93     0  01:47      0.14    0.11    1.00
  YS02001884YS02001887 CONDUIT    125.47     0  01:47      0.16    0.17    1.00
  YS02001887YS02001890 CONDUIT    617.41     0  01:50      0.79    1.06    1.00
  YS02001890YS02001895 CONDUIT    562.39     0  01:47      0.72    0.26    1.00
  YS02001895YS02001898 CONDUIT    569.71     0  01:47      0.73    0.99    1.00
  YS02001898YS02001901 CONDUIT    579.27     0  01:47      0.74    0.37    1.00
  YS02001901YS02001904 CONDUIT    583.40     0  01:47      0.74    0.90    1.00
  YS02001904YS02001907 CONDUIT    588.11     0  01:47      0.75    0.21    1.00
  YS02001907YS02006553 CONDUIT    670.73     0  02:06      0.75    0.79    1.00
  YS02001910YS02001907 CONDUIT   1099.63     0  01:50      1.40    0.62    1.00
  YS02001915YS02001910 CONDUIT   1098.42     0  01:50      1.40    0.55    1.00
  YS02001918YS02001915 CONDUIT    604.08     0  01:48      0.79    0.33    1.00
  YS02001920YS02001918 CONDUIT    564.39     0  01:48      0.72    0.55    1.00
  YS02001923YS02001920 CONDUIT    571.63     0  01:48      0.77    0.26    1.00
  YS02001926YS02001923 CONDUIT    819.52     0  01:48      1.27    1.17    1.00
  YS02001929YS02001926 CONDUIT    586.92     0  01:48      1.23    0.28    1.00
  YS02006553YS02006556 CONDUIT    671.49     0  02:06      0.85    0.57    1.00
  YS02006556YS02006558 CONDUIT    673.80     0  02:06      0.86    0.53    1.00
  YS02006558YS02006561 CONDUIT   1181.48     0  01:48      4.18    2.61    1.00
  YS02006561YS02001783 CONDUIT   1117.35     0  01:48      2.27    0.58    1.00
  YS02163301YS02001633 CONDUIT    921.75     0  01:47      1.17    0.87    1.00
  YS02163601YS02164001 CONDUIT   1450.93     0  01:47      1.85    1.29    1.00
  YS02164001YS02001641 CONDUIT   1452.80     0  01:47      1.85    1.98    1.00
  CC-R1                PUMP       683.00     0  00:00              1.00
  CC-R2                PUMP       683.00     0  00:00              1.00
  CC-S1                PUMP       200.00     0  00:00              1.00
  CC-S2                PUMP       200.00     0  00:00              1.00
  JK-R1                PUMP      1000.00     0  00:00              1.00
  JK-R2                PUMP      1000.00     0  00:00              1.00
  JK-S                 PUMP       300.00     0  00:00              1.00
  XR-1                 PUMP        95.00     0  00:00              1.00
  XR-2                 PUMP        95.00     0  00:00              1.00
  XR-3                 PUMP        95.00     0  00:00              1.00
  XR-4                 PUMP        95.00     0  00:00              1.00
  
  
  ***************************
  Flow Classification Summary
  ***************************
  
  -------------------------------------------------------------------------------------
                      Adjusted    ---------- Fraction of Time in Flow Class ---------- 
                       /Actual         Up    Down  Sub   Sup   Up    Down  Norm  Inlet 
  Conduit               Length    Dry  Dry   Dry   Crit  Crit  Crit  Crit  Ltd   Ctrl  
  -------------------------------------------------------------------------------------
  1                       1.00   0.00  0.00  0.00  0.00  1.00  0.00  0.00  0.17  0.00
  WS02001211WS02001212    1.00   0.00  0.00  0.00  1.00  0.00  0.00  0.00  0.00  0.00
  WS02001212WS02001213    1.00   0.00  0.00  0.00  0.35  0.00  0.65  0.00  0.00  0.00
  WS02001213WS02003059    1.00   0.00  0.00  0.00  0.99  0.00  0.00  0.00  0.00  0.00
  WS02003059WS02003060    1.00   0.00  0.00  0.00  1.00  0.00  0.00  0.00  0.00  0.00
  WS02003060WS02003069    1.00   0.00  0.00  0.00  0.99  0.01  0.00  0.00  0.00  0.00
  WS02003066WSF200        1.00   0.02  0.10  0.00  0.00  0.88  0.00  0.00  0.86  0.00
  WS02003067WS02003066    1.00   0.10  0.02  0.00  0.89  0.00  0.00  0.00  0.00  0.00
  WS02003069WS02003072    1.00   0.00  0.00  0.00  0.99  0.01  0.00  0.00  0.00  0.00
  WS02003072WS02003073    1.00   0.00  0.00  0.00  0.00  0.00  0.00  1.00  0.00  0.00
  WS02004138WS02004139    1.00   0.00  0.00  0.00  0.99  0.01  0.00  0.00  1.00  0.00
  WS02004139WS02001211    1.00   0.00  0.00  0.00  1.00  0.00  0.00  0.00  0.00  0.00
  WS02004401WS02004402    1.00   0.02  0.00  0.00  0.98  0.00  0.00  0.00  0.00  0.00
  WS02004402WS02004403    1.00   0.02  0.00  0.00  0.98  0.00  0.00  0.00  0.00  0.00
  WS02004403WS02004404    1.00   0.00  0.03  0.00  0.97  0.00  0.00  0.00  0.00  0.00
  WS02004404WS02004405    1.00   0.00  0.00  0.00  1.00  0.00  0.00  0.00  0.00  0.00
  WS02004405WS02004406    1.00   0.00  0.00  0.00  1.00  0.00  0.00  0.00  0.00  0.00
  WS02004406WS02004407    1.00   0.00  0.05  0.00  0.95  0.00  0.00  0.00  0.00  0.00
  WS02004407WS02004409    1.00   0.05  0.00  0.00  0.94  0.01  0.00  0.00  0.94  0.00
  WS02004409WS02004410    1.00   0.05  0.00  0.00  0.95  0.00  0.00  0.00  0.02  0.00
  WS02004410WS02004411    1.00   0.05  0.00  0.00  0.95  0.00  0.00  0.00  0.00  0.00
  WS02004411WS02004412    1.00   0.05  0.00  0.00  0.95  0.00  0.00  0.00  0.00  0.00
  WS02004412WS02004413    1.00   0.05  0.00  0.00  0.94  0.00  0.00  0.00  0.01  0.00
  WS02004413WS02003067    1.00   0.06  0.04  0.00  0.00  0.00  0.90  0.00  0.00  0.00
  WS02006109WS02006110    1.00   0.00  0.01  0.00  0.98  0.00  0.01  0.00  0.00  0.00
  WS02006110WS02006113    1.00   0.01  0.01  0.00  0.98  0.00  0.00  0.00  0.00  0.00
  WS02006111WS02006112    1.00   0.02  0.00  0.00  0.98  0.00  0.00  0.00  0.98  0.00
  WS02006112WS02006115    1.00   0.02  0.00  0.00  0.97  0.00  0.00  0.00  0.00  0.00
  WS02006113WS02006111    1.00   0.02  0.00  0.00  0.00  0.98  0.00  0.00  0.10  0.00
  WS02006115WS02006116    1.00   0.02  0.00  0.00  0.97  0.00  0.00  0.01  0.00  0.00
  WS02006116WS02004401    1.00   0.02  0.00  0.00  0.98  0.00  0.00  0.00  0.00  0.00
  WS02006228WS02006109    1.00   0.00  0.00  0.00  1.00  0.00  0.00  0.00  0.00  0.00
  WS02006229WS02006228    1.00   0.00  0.00  0.00  0.99  0.00  0.00  0.01  0.00  0.00
  WS02006230WS02006229    1.00   0.00  0.00  0.00  0.99  0.00  0.00  0.01  0.00  0.00
  WS02006231WS02006230    1.00   0.00  0.00  0.00  0.23  0.00  0.77  0.00  0.00  0.00
  WS02006232WS02006231    1.00   0.00  0.00  0.00  0.99  0.00  0.01  0.00  0.00  0.00
  WS02006234WS02006232    1.00   0.00  0.00  0.00  1.00  0.00  0.00  0.00  0.54  0.00
  WS02006235WS02006234    1.00   0.00  0.00  0.00  0.42  0.00  0.58  0.00  0.00  0.00
  WS02006238WS02006235    1.00   0.00  0.00  0.00  1.00  0.00  0.00  0.00  0.00  0.00
  WS02006239WS02006238    1.00   0.00  0.00  0.00  1.00  0.00  0.00  0.00  0.63  0.00
  WS02006240WS02006239    1.00   0.00  0.00  0.00  0.33  0.00  0.00  0.67  0.01  0.00
  WS02006242WS02006240    1.00   0.00  0.00  0.00  0.99  0.00  0.01  0.00  0.00  0.00
  WS02006243WS02006242    1.00   0.00  0.00  0.00  0.99  0.00  0.00  0.01  0.72  0.00
  WS02006245WS02006243    1.00   0.00  0.00  0.00  0.38  0.00  0.00  0.62  0.00  0.00
  WS02006247WS02006245    1.00   0.00  0.00  0.00  0.99  0.00  0.00  0.01  0.00  0.00
  WS02006248WS02006247    1.00   0.00  0.00  0.00  0.99  0.00  0.00  0.01  0.12  0.00
  WS02006249WS02006248    1.00   0.00  0.00  0.00  0.28  0.00  0.72  0.00  0.00  0.00
  WS02006251WS02006249    1.00   0.00  0.00  0.00  1.00  0.00  0.00  0.00  0.73  0.00
  WS02006252WS02006251    1.00   0.00  0.75  0.00  0.00  0.00  0.25  0.00  0.58  0.00
  WS02006256WS02006235    1.00   0.00  0.00  0.00  1.00  0.00  0.00  0.00  0.00  0.00
  WSF200WS02003060        1.00   0.00  0.02  0.00  0.98  0.00  0.00  0.00  0.67  0.00
  YS02001580YS02001583    1.00   0.22  0.59  0.00  0.19  0.00  0.00  0.00  0.68  0.00
  YS02001583YS02001586    1.00   0.49  0.26  0.00  0.24  0.00  0.00  0.00  0.68  0.00
  YS02001586YS02001590    1.00   0.13  0.00  0.00  0.38  0.04  0.00  0.45  0.31  0.00
  YS02001590YS02001593    1.00   0.13  0.01  0.00  0.14  0.00  0.73  0.00  0.00  0.00
  YS02001593YS02001596    1.00   0.13  0.00  0.00  0.79  0.00  0.00  0.07  0.65  0.00
  YS02001596YS02001600    1.00   0.14  0.00  0.00  0.81  0.00  0.00  0.05  0.01  0.00
  YS02001600YS02001601    1.00   0.13  0.01  0.00  0.86  0.00  0.00  0.00  0.04  0.00
  YS02001601YS02001602    1.00   0.13  0.01  0.00  0.87  0.00  0.00  0.00  0.00  0.00
  YS02001602YS02001605    1.00   0.14  0.00  0.00  0.86  0.00  0.00  0.00  0.00  0.00
  YS02001605YS02001607    1.00   0.14  0.00  0.00  0.86  0.00  0.00  0.00  0.00  0.00
  YS02001607YS02001610    1.00   0.13  0.01  0.00  0.86  0.00  0.00  0.00  0.01  0.00
  YS02001610YS02001613    1.00   0.13  0.00  0.00  0.87  0.00  0.00  0.00  0.00  0.00
  YS02001613YS02001616    1.00   0.13  0.00  0.00  0.87  0.00  0.00  0.00  0.00  0.00
  YS02001616YS02001619    1.00   0.13  0.00  0.00  0.87  0.00  0.00  0.00  0.00  0.00
  YS02001619YS02001622    1.00   0.13  0.00  0.00  0.87  0.00  0.00  0.00  0.00  0.00
  YS02001622YS02001625    1.00   0.13  0.00  0.00  0.87  0.00  0.00  0.00  0.04  0.00
  YS02001625YS02001629    1.00   0.13  0.05  0.00  0.79  0.00  0.03  0.00  0.00  0.00
  YS02001629YS02163301    1.00   0.15  0.01  0.00  0.84  0.00  0.00  0.00  0.00  0.00
  YS02001633YS02163601    1.00   0.00  0.01  0.00  0.99  0.00  0.00  0.00  0.15  0.00
  YS02001641YS02001644    1.00   0.00  0.01  0.00  0.99  0.00  0.00  0.00  0.00  0.00
  YS02001644YS02001647    1.00   0.00  0.17  0.00  0.83  0.00  0.00  0.00  0.00  0.00
  YS02001647YS02001649    1.00   0.00  0.17  0.00  0.83  0.00  0.00  0.00  0.02  0.00
  YS02001649YS02001757    1.00   0.00  0.00  0.00  0.98  0.01  0.00  0.00  0.18  0.00
  YS02001652YS02001649    1.00   0.00  0.00  0.00  0.97  0.03  0.00  0.00  0.16  0.00
  YS02001655YS02001652    1.00   0.00  0.00  0.00  0.79  0.00  0.00  0.21  0.00  0.00
  YS02001658YS02001655    1.00   0.00  0.14  0.00  0.78  0.08  0.00  0.00  0.01  0.00
  YS02001661YS02001658    1.00   0.14  0.00  0.00  0.77  0.08  0.00  0.00  0.00  0.00
  YS02001664YS02001661    1.00   0.13  0.00  0.00  0.84  0.04  0.00  0.00  0.86  0.00
  YS02001745YS02001748    1.00   0.00  0.00  0.00  0.77  0.00  0.00  0.23  0.00  0.00
  YS02001748YS02001751    1.00   0.00  0.00  0.00  0.91  0.09  0.00  0.00  0.12  0.00
  YS02001751YS02001754    1.00   0.00  0.00  0.00  0.78  0.00  0.00  0.22  0.00  0.00
  YS02001754YS02001757    1.00   0.00  0.00  0.00  1.00  0.00  0.00  0.00  0.21  0.00
  YS02001757CaochengTiaoxuchi    1.00   0.00  0.00  0.00  0.98  0.02  0.00  0.00  0.20  0.00
  YS02001759YS02001757    1.00   0.00  0.00  0.00  1.00  0.00  0.00  0.00  0.06  0.00
  YS02001762YS02001759    1.00   0.00  0.00  0.00  1.00  0.00  0.00  0.00  0.03  0.00
  YS02001765YS02001762    1.00   0.00  0.00  0.00  1.00  0.00  0.00  0.00  0.15  0.00
  YS02001767YS02001765    1.00   0.00  0.00  0.00  1.00  0.00  0.00  0.00  0.00  0.00
  YS02001770YS02001767    1.00   0.00  0.00  0.00  1.00  0.00  0.00  0.00  0.00  0.00
  YS02001774YS02001770    1.00   0.00  0.13  0.00  0.87  0.00  0.00  0.00  0.03  0.00
  YS02001779YS02001774    1.00   0.00  0.00  0.00  1.00  0.00  0.00  0.00  0.17  0.00
  YS02001783YS02001784    1.00   0.00  0.18  0.00  0.82  0.00  0.00  0.00  0.00  0.00
  YS02001784YS02001785    1.00   0.00  0.00  0.00  1.00  0.00  0.00  0.00  0.17  0.00
  YS02001786YS02001788    1.00   0.00  0.00  0.00  0.96  0.04  0.00  0.00  0.00  0.00
  YS02001788YS02001790    1.00   0.00  0.00  0.00  0.96  0.04  0.00  0.00  0.19  0.00
  YS02001790YS02001791    1.00   0.00  0.00  0.00  0.79  0.21  0.00  0.00  0.02  0.00
  YS02001791YS02001793    1.00   0.00  0.00  0.00  0.78  0.22  0.00  0.00  0.00  0.00
  YS02001793JiankangQianchi    1.00   0.00  0.00  0.00  0.93  0.06  0.00  0.00  0.19  0.00
  YS02001882YS02001884    1.00   0.15  0.01  0.00  0.84  0.00  0.00  0.00  0.00  0.00
  YS02001884YS02001887    1.00   0.06  0.05  0.00  0.89  0.00  0.00  0.00  0.00  0.00
  YS02001887YS02001890    1.00   0.00  0.00  0.00  0.97  0.00  0.03  0.00  0.00  0.00
  YS02001890YS02001895    1.00   0.00  0.16  0.00  0.84  0.00  0.00  0.00  0.00  0.00
  YS02001895YS02001898    1.00   0.16  0.00  0.00  0.82  0.00  0.02  0.00  0.00  0.00
  YS02001898YS02001901    1.00   0.17  0.00  0.00  0.83  0.00  0.00  0.00  0.01  0.00
  YS02001901YS02001904    1.00   0.17  0.00  0.00  0.83  0.00  0.00  0.00  0.00  0.00
  YS02001904YS02001907    1.00   0.00  0.16  0.00  0.83  0.00  0.00  0.00  0.00  0.00
  YS02001907YS02006553    1.00   0.00  0.02  0.00  0.98  0.00  0.00  0.00  0.00  0.00
  YS02001910YS02001907    1.00   0.00  0.00  0.00  0.97  0.00  0.00  0.03  0.12  0.00
  YS02001915YS02001910    1.00   0.00  0.00  0.00  0.97  0.03  0.00  0.00  0.16  0.00
  YS02001918YS02001915    1.00   0.00  0.01  0.00  0.98  0.02  0.00  0.00  0.77  0.00
  YS02001920YS02001918    1.00   0.00  0.01  0.00  0.99  0.00  0.00  0.00  0.00  0.00
  YS02001923YS02001920    1.00   0.00  0.00  0.00  1.00  0.00  0.00  0.00  0.93  0.00
  YS02001926YS02001923    1.00   0.00  0.07  0.00  0.05  0.00  0.87  0.00  0.00  0.00
  YS02001929YS02001926    1.00   0.00  0.13  0.00  0.87  0.00  0.00  0.00  0.83  0.00
  YS02006553YS02006556    1.00   0.01  0.00  0.00  0.99  0.00  0.00  0.00  0.03  0.00
  YS02006556YS02006558    1.00   0.00  0.00  0.00  1.00  0.00  0.00  0.00  0.00  0.00
  YS02006558YS02006561    1.00   0.18  0.00  0.00  0.06  0.76  0.00  0.00  0.18  0.00
  YS02006561YS02001783    1.00   0.18  0.00  0.00  0.78  0.04  0.00  0.00  0.73  0.00
  YS02163301YS02001633    1.00   0.00  0.15  0.00  0.85  0.00  0.00  0.00  0.00  0.00
  YS02163601YS02164001    1.00   0.00  0.08  0.00  0.92  0.00  0.00  0.00  0.00  0.00
  YS02164001YS02001641    1.00   0.01  0.07  0.00  0.92  0.00  0.00  0.00  0.05  0.00
  
  
  *************************
  Conduit Surcharge Summary
  *************************
  
  ----------------------------------------------------------------------------
                                                           Hours        Hours 
                         --------- Hours Full --------   Above Full   Capacity
  Conduit                Both Ends  Upstream  Dnstream   Normal Flow   Limited
  ----------------------------------------------------------------------------
  WS02003072WS02003073        0.01      0.01      0.01      2.23         0.01
  WS02004404WS02004405        0.01      0.01      0.01      2.08         0.01
  WS02006109WS02006110        0.01      0.01      1.73      0.01         0.01
  WS02006110WS02006113        0.01      0.01      1.72      0.01         0.01
  WS02006111WS02006112        0.01      0.01      1.79      0.01         0.01
  WS02006228WS02006109        1.68      1.74      1.68      1.90         1.68
  WS02006229WS02006228        1.68      1.70      1.68      1.84         1.68
  WS02006230WS02006229        1.79      1.82      1.79      2.35         1.79
  WS02006231WS02006230        0.01      0.01      0.01      2.20         0.01
  WS02006232WS02006231        0.01      0.01      1.75      0.01         0.01
  WS02006234WS02006232        1.65      1.65      1.75      0.01         0.01
  WS02006235WS02006234        0.01      0.01      1.69      2.12         0.01
  WS02006238WS02006235        1.70      1.70      1.76      0.01         0.01
  WS02006239WS02006238        1.72      1.75      1.72      1.88         1.72
  WS02006240WS02006239        1.70      1.71      1.70      1.90         1.70
  WS02006242WS02006240        1.70      1.70      1.80      1.95         0.01
  WS02006243WS02006242        1.72      1.72      1.78      0.01         0.01
  WS02006245WS02006243        1.72      1.73      1.72      1.94         1.71
  WS02006247WS02006245        1.72      1.74      1.72      2.01         1.72
  WS02006248WS02006247        1.72      1.72      1.74      0.01         0.01
  WS02006249WS02006248        1.71      1.71      1.73      2.00         0.01
  WS02006251WS02006249        1.73      1.74      1.73      1.99         1.73
  WS02006252WS02006251        2.01      2.01      2.01      2.01         0.01
  WS02006256WS02006235        2.16      2.16      2.92      0.02         0.01
  YS02001580YS02001583        0.47      0.47      0.51      0.01         0.01
  YS02001583YS02001586        0.47      0.47      0.69      0.01         0.01
  YS02001586YS02001590        0.69      0.69      0.80      0.01         0.01
  YS02001590YS02001593        0.81      0.81      0.83      0.77         0.01
  YS02001593YS02001596        0.82      0.82      1.02      0.01         0.01
  YS02001596YS02001600        1.18      1.18      1.53      0.01         0.01
  YS02001600YS02001601        6.33      6.33      6.40      0.01         0.01
  YS02001601YS02001602        6.37      6.37      6.41      0.91         0.01
  YS02001602YS02001605        6.35      6.35      6.37      2.04         0.06
  YS02001605YS02001607        6.33      6.35      6.33      1.22         1.15
  YS02001607YS02001610        1.29      1.29      4.81      0.01         0.01
  YS02001610YS02001613        1.29      1.29      4.81      0.01         0.01
  YS02001613YS02001616        1.12      1.12      1.29      0.01         0.01
  YS02001616YS02001619        1.07      1.07      1.12      0.01         0.01
  YS02001619YS02001622        1.07      1.07      1.14      0.61         0.53
  YS02001622YS02001625        1.14      1.14      6.25      0.01         0.01
  YS02001625YS02001629        1.02      1.02      6.25      0.01         0.01
  YS02001629YS02163301        6.25      6.25      6.25      0.02         0.07
  YS02001633YS02163601        6.26      6.26      6.26      0.20         0.20
  YS02001641YS02001644        6.24      6.25      6.24      1.33         1.13
  YS02001644YS02001647        6.20      6.20      6.24      0.04         0.01
  YS02001647YS02001649        6.20      6.20      6.20      0.01         0.01
  YS02001649YS02001757        6.20      6.20      6.20      0.14         0.12
  YS02001652YS02001649        6.19      6.19      6.20      0.01         0.01
  YS02001655YS02001652        0.96      0.96      6.19      0.01         0.01
  YS02001658YS02001655        0.09      0.09      0.96      0.01         0.01
  YS02001661YS02001658        0.01      0.01      0.09      0.01         0.01
  YS02001664YS02001661        0.01      0.01      0.01      0.01         0.01
  YS02001745YS02001748        0.01      0.01      0.01      0.01         0.01
  YS02001748YS02001751        0.04      0.04      0.43      0.01         0.01
  YS02001751YS02001754        0.43      0.43      6.18      0.01         0.01
  YS02001754YS02001757        6.19      6.19      6.20      0.01         0.01
  YS02001757CaochengTiaoxuchi        6.14      6.20      6.14      0.26         0.18
  YS02001759YS02001757        6.19      6.19      6.20      0.01         0.02
  YS02001762YS02001759        6.19      6.19      6.19      0.01         0.02
  YS02001765YS02001762        6.19      6.19      6.19      0.01         0.01
  YS02001767YS02001765        6.19      6.19      6.19      0.01         0.03
  YS02001770YS02001767        6.19      6.19      6.19      0.40         0.50
  YS02001774YS02001770        6.19      6.19      6.19      0.01         0.01
  YS02001779YS02001774        6.19      6.19      6.19      0.01         0.01
  YS02001783YS02001784        0.56      0.57      0.57      0.53         0.49
  YS02001784YS02001785        0.55      0.57      0.55      0.74         0.55
  YS02001786YS02001788        0.55      0.55      0.55      0.65         0.54
  YS02001788YS02001790        0.55      0.55      6.20      0.01         0.01
  YS02001790YS02001791        6.20      6.20      6.20      0.31         0.30
  YS02001791YS02001793        6.20      6.20      6.21      0.01         0.01
  YS02001793JiankangQianchi        6.21      6.21      6.36      0.01         0.01
  YS02001882YS02001884        0.42      0.42      0.43      0.01         0.01
  YS02001884YS02001887        0.45      0.45      0.46      0.01         0.01
  YS02001887YS02001890        0.47      0.47      0.48      0.04         0.01
  YS02001890YS02001895        0.41      0.41      0.50      0.01         0.01
  YS02001895YS02001898        0.40      0.40      0.41      0.01         0.01
  YS02001898YS02001901        0.41      0.41      0.45      0.01         0.01
  YS02001901YS02001904        0.44      0.44      0.45      0.01         0.01
  YS02001904YS02001907        0.44      0.44      0.64      0.01         0.01
  YS02001907YS02006553        0.75      0.75      0.81      0.01         0.01
  YS02001910YS02001907        0.49      0.49      0.63      0.01         0.01
  YS02001915YS02001910        0.42      0.42      0.49      0.01         0.01
  YS02001918YS02001915        0.33      0.33      0.42      0.01         0.01
  YS02001920YS02001918        0.33      0.33      0.34      0.01         0.01
  YS02001923YS02001920        0.28      0.28      0.34      0.01         0.01
  YS02001926YS02001923        0.01      0.01      0.02      0.01         0.01
  YS02001929YS02001926        0.01      0.01      0.02      0.01         0.01
  YS02006553YS02006556        0.56      0.56      0.64      0.01         0.01
  YS02006556YS02006558        0.60      0.60      0.65      0.01         0.01
  YS02006558YS02006561        0.44      0.56      0.44      0.70         0.44
  YS02006561YS02001783        0.36      0.36      0.57      0.01         0.01
  YS02163301YS02001633        6.25      6.25      6.26      0.01         0.01
  YS02163601YS02164001        6.25      6.25      6.26      0.04         0.01
  YS02164001YS02001641        6.25      6.25      6.25      0.59         0.56
  
  
  ***************
  Pumping Summary
  ***************
  
  ---------------------------------------------------------------------------------------------------------
                                                  Min       Avg       Max     Total     Power    % Time Off
                        Percent   Number of      Flow      Flow      Flow    Volume     Usage    Pump Curve
  Pump                 Utilized   Start-Ups       LPS       LPS       LPS  10^6 ltr     Kw-hr    Low   High
  ---------------------------------------------------------------------------------------------------------
  CC-R1                    1.06           1      0.00    683.00    683.00     0.208      3.51    0.0  100.0
  CC-R2                    1.06           1      0.00    683.00    683.00     0.208      3.51    0.0  100.0
  CC-S1                   25.12           2      0.00    200.00    200.00     1.447      6.35    0.0   54.1
  CC-S2                   25.12           2      0.00    200.00    200.00     1.447      6.35    0.0   54.1
  JK-R1                    0.97           2      0.00    347.46   1000.00     0.078      0.47    0.0    0.0
  JK-R2                    0.97           2      0.00    347.46   1000.00     0.078      0.47    0.0    0.0
  JK-S                     0.97           2      0.00    104.30    300.00     0.023      0.44    0.0    0.0
  XR-1                   100.00           1      0.00     95.00     95.00     2.736     68.18    0.0    0.0
  XR-2                   100.00           1      0.00     95.00     95.00     2.736     68.18    0.0    0.0
  XR-3                   100.00           1      0.00     95.00     95.00     2.736     68.18    0.0    0.0
  XR-4                   100.00           1      0.00     95.00     95.00     2.736     68.18    0.0    0.0
  

  Analysis begun on:  Wed Nov  5 16:28:56 2025
  Analysis ended on:  Wed Nov  5 16:28:59 2025
  Total elapsed time: 00:00:03