
  EPA STORM WATER MANAGEMENT MODEL - VERSION 5.2 (Build 5.2.4)
  PYSWMM TOOLKIT API - VERSION v1.0 (2023-11-27)
  ------------------------------------------------------------

  WARNING 04: minimum elevation drop used for Conduit WS02004404WS02004405
  WARNING 03: negative offset ignored for Link YS02001904YS02001907
  
  ****************
  Analysis Options
  ****************
  Flow Units ............... LPS
  Process Models:
    Rainfall/Runoff ........ YES
    RDII ................... NO
    Snowmelt ............... NO
    Groundwater ............ NO
    Flow Routing ........... YES
    Ponding Allowed ........ NO
    Water Quality .......... NO
  Infiltration Method ...... HORTON
  Flow Routing Method ...... DYNWAVE
  Surcharge Method ......... EXTRAN
  Starting Date ............ 08/28/2015 08:00:00
  Ending Date .............. 08/28/2015 16:00:00
  Antecedent Dry Days ...... 8.0
  Report Time Step ......... 00:01:00
  Wet Time Step ............ 00:01:00
  Dry Time Step ............ 00:01:00
  Routing Time Step ........ 30.00 sec
  Variable Time Step ....... YES
  Maximum Trials ........... 8
  Number of Threads ........ 4
  Head Tolerance ........... 0.001500 m
  
  
  **************************        Volume         Depth
  Runoff Quantity Continuity     hectare-m            mm
  **************************     ---------       -------
  Initial LID Storage ......         0.049         1.488
  Total Precipitation ......         1.629        49.122
  Evaporation Loss .........         0.000         0.000
  Infiltration Loss ........         0.075         2.260
  Surface Runoff ...........         1.186        35.743
  Final Storage ............         0.419        12.642
  Continuity Error (%) .....        -0.069
  
  
  **************************        Volume        Volume
  Flow Routing Continuity        hectare-m      10^6 ltr
  **************************     ---------     ---------
  Dry Weather Inflow .......         0.602         6.020
  Wet Weather Inflow .......         1.186        11.857
  Groundwater Inflow .......         0.000         0.000
  RDII Inflow ..............         0.000         0.000
  External Inflow ..........         0.105         1.045
  External Outflow .........         1.484        14.842
  Flooding Loss ............         0.409         4.090
  Evaporation Loss .........         0.000         0.000
  Exfiltration Loss ........         0.000         0.000
  Initial Stored Volume ....         0.303         3.031
  Final Stored Volume ......         0.761         7.614
  Continuity Error (%) .....       -20.918
  
  
  *************************
  Highest Continuity Errors
  *************************
  Node YS02001774 (35.75%)
  Node WS02006256 (-5.76%)
  Node YS02001583 (-5.31%)
  Node YS02001884 (4.93%)
  Node YS02001754 (4.34%)
  
  
  ***************************
  Time-Step Critical Elements
  ***************************
  Link WS02001212WS02001213 (29.75%)
  Link WS02006238WS02006235 (25.65%)
  Link WS02006235WS02006234 (13.36%)
  Link WS02006252WS02006251 (9.27%)
  Link WS02003066WSF200 (4.96%)
  
  
  ********************************
  Highest Flow Instability Indexes
  ********************************
  Link WS02006113WS02006111 (36)
  Link WS02006111WS02006112 (23)
  Link WS02006256WS02006235 (23)
  Link WS02006238WS02006235 (20)
  Link WS02006110WS02006113 (15)
  
  
  *********************************
  Most Frequent Nonconverging Nodes
  *********************************
  Node CC-1 (9.14%)
  Node CC-2 (9.14%)
  Node JK-1 (9.14%)
  Node JK-2 (9.14%)
  Node WSC (9.14%)
  
  
  *************************
  Routing Time Step Summary
  *************************
  Minimum Time Step           :     0.01 sec
  Average Time Step           :     3.39 sec
  Maximum Time Step           :     6.46 sec
  % of Time in Steady State   :     0.00
  Average Iterations per Step :     2.93
  % of Steps Not Converging   :     9.14
  Time Step Frequencies       :
     30.000 - 13.228 sec      :     0.00 %
     13.228 -  5.833 sec      :    28.67 %
      5.833 -  2.572 sec      :    31.95 %
      2.572 -  1.134 sec      :    22.30 %
      1.134 -  0.500 sec      :    17.08 %
  
  
  ***************************
  Subcatchment Runoff Summary
  ***************************
  
  ------------------------------------------------------------------------------------------------------------------------------
                            Total      Total      Total      Total     Imperv       Perv      Total       Total     Peak  Runoff
                           Precip      Runon       Evap      Infil     Runoff     Runoff     Runoff      Runoff   Runoff   Coeff
  Subcatchment                 mm         mm         mm         mm         mm         mm         mm    10^6 ltr      LPS
  ------------------------------------------------------------------------------------------------------------------------------
  sub60                     49.12       0.00       0.00       1.33      32.44       3.22      35.66        0.47   365.94   0.726
  sub61                     49.12       0.00       0.00       2.05      32.41       4.78      37.19        0.68   534.14   0.757
  sub62                     49.12       0.00       0.00       0.90      34.54       2.19      36.73        1.01   728.99   0.748
  sub63                     49.12       0.00       0.00       3.78      27.76       7.88      35.64        0.81   606.34   0.725
  sub64                     49.12       0.00       0.00       1.81      31.60       3.93      35.53        0.85   592.30   0.723
  sub65                     49.12       0.00       0.00       1.66      34.10       3.59      37.69        1.04   688.50   0.767
  sub66                     49.12       0.00       0.00       4.45      26.83       6.84      33.67        1.57   890.22   0.685
  sub67                     49.12       0.00       0.00       0.89      35.42       2.27      37.70        0.70   565.95   0.767
  sub68                     49.12       0.00       0.00       1.57      31.28       3.67      34.95        0.96   728.16   0.711
  sub69                     49.12       0.00       0.00       1.44      33.01       4.40      37.41        1.39   890.42   0.762
  sub70                     49.12       0.00       0.00       4.89      26.43       8.79      35.22        1.02   512.43   0.717
  sub71                     49.12       0.00       0.00       0.84      31.38       1.97      33.35        0.87   598.44   0.679
  sub72                     49.12       0.00       0.00       0.80      33.88       1.83      35.71        0.49   305.73   0.727
  

  ***********************
  LID Performance Summary
  ***********************

  --------------------------------------------------------------------------------------------------------------------
                                         Total      Evap     Infil   Surface    Drain    Initial     Final  Continuity
                                        Inflow      Loss      Loss   Outflow   Outflow   Storage   Storage       Error
  Subcatchment      LID Control             mm        mm        mm        mm        mm        mm        mm           %
  --------------------------------------------------------------------------------------------------------------------
  sub60             GreenRoof            49.12      0.00      0.00      0.00      0.00      7.05     56.29       -0.21
  sub61             GreenRoof            49.12      0.00      0.00      0.00      0.00      7.05     56.29       -0.21
  sub62             GreenRoof            49.12      0.00      0.00      0.00      0.00      7.05     56.29       -0.21
  sub63             GreenRoof            49.12      0.00      0.00      0.00      0.00      7.05     56.29       -0.21
  sub64             GreenRoof            49.12      0.00      0.00      0.00      0.00      7.05     56.29       -0.21
  sub65             GreenRoof            49.12      0.00      0.00      0.00      0.00      7.05     56.29       -0.21
  sub66             GreenRoof            49.12      0.00      0.00      0.00      0.00      7.05     56.29       -0.21
  sub67             GreenRoof            49.12      0.00      0.00      0.00      0.00      7.05     56.29       -0.21
  sub68             GreenRoof            49.12      0.00      0.00      0.00      0.00      7.05     56.29       -0.21
  sub69             GreenRoof            49.12      0.00      0.00      0.00      0.00      7.05     56.29       -0.21
  sub70             GreenRoof            49.12      0.00      0.00      0.00      0.00      7.05     56.29       -0.21
  sub71             GreenRoof            49.12      0.00      0.00      0.00      0.00      7.05     56.29       -0.21
  sub72             GreenRoof            49.12      0.00      0.00      0.00      0.00      7.05     56.29       -0.21
  
  ******************
  Node Depth Summary
  ******************
  
  ---------------------------------------------------------------------------------
                                 Average  Maximum  Maximum  Time of Max    Reported
                                   Depth    Depth      HGL   Occurrence   Max Depth
  Node                 Type       Meters   Meters   Meters  days hr:min      Meters
  ---------------------------------------------------------------------------------
  WS02001211           JUNCTION     0.76     0.78     5.62     0  03:15        0.78
  WS02001212           JUNCTION     0.46     0.49     5.55     0  03:14        0.49
  WS02001213           JUNCTION     0.68     0.73     5.49     0  03:13        0.73
  WS02003059           JUNCTION     0.72     0.78     5.47     0  03:13        0.78
  WS02003060           JUNCTION     0.37     0.47     5.41     0  03:12        0.47
  WS02003066           JUNCTION     0.15     0.27     5.82     0  03:11        0.27
  WS02003067           JUNCTION     0.42     0.65     5.97     0  03:26        0.65
  WS02003069           JUNCTION     0.42     0.54     5.12     0  03:13        0.54
  WS02003072           JUNCTION     0.48     0.60     4.97     0  03:13        0.60
  WS02003073           JUNCTION     0.29     0.37     4.43     0  03:14        0.37
  WS02004138           JUNCTION     0.19     0.20     7.45     0  00:00        0.19
  WS02004139           JUNCTION     0.71     0.73     5.64     0  03:14        0.73
  WS02004401           JUNCTION     0.49     0.75     6.75     0  03:23        0.75
  WS02004402           JUNCTION     0.53     0.78     6.74     0  03:23        0.78
  WS02004403           JUNCTION     0.55     0.80     6.73     0  03:23        0.80
  WS02004404           JUNCTION     0.63     0.88     6.73     0  02:40        0.88
  WS02004405           JUNCTION     0.63     0.88     6.73     0  03:23        0.87
  WS02004406           JUNCTION     0.64     0.88     6.71     0  02:40        0.88
  WS02004407           JUNCTION     0.13     0.26     6.57     0  03:24        0.26
  WS02004409           JUNCTION     0.28     0.58     6.35     0  03:24        0.57
  WS02004410           JUNCTION     0.31     0.59     6.31     0  03:24        0.59
  WS02004411           JUNCTION     0.34     0.61     6.29     0  03:25        0.61
  WS02004412           JUNCTION     0.36     0.62     6.26     0  03:11        0.62
  WS02004413           JUNCTION     0.52     0.79     6.26     0  03:11        0.79
  WS02006109           JUNCTION     0.55     0.84     7.45     0  02:22        0.83
  WS02006110           JUNCTION     0.56     0.82     7.41     0  02:47        0.82
  WS02006111           JUNCTION     0.14     0.25     6.96     0  03:22        0.25
  WS02006112           JUNCTION     0.64     0.93     6.82     0  03:22        0.93
  WS02006113           JUNCTION     0.21     0.39     7.29     0  02:49        0.39
  WS02006115           JUNCTION     0.38     0.65     6.78     0  03:22        0.64
  WS02006116           JUNCTION     0.46     0.73     6.77     0  03:22        0.73
  WS02006228           JUNCTION     0.54     0.85     7.50     0  02:20        0.85
  WS02006229           JUNCTION     0.50     0.83     7.52     0  02:22        0.83
  WS02006230           JUNCTION     0.49     0.86     7.60     0  02:29        0.86
  WS02006231           JUNCTION     0.29     0.60     7.72     0  02:23        0.60
  WS02006232           JUNCTION     0.41     0.75     7.79     0  02:36        0.75
  WS02006234           JUNCTION     0.33     0.71     7.87     0  02:23        0.71
  WS02006235           JUNCTION     0.36     0.77     7.93     0  02:24        0.76
  WS02006238           JUNCTION     0.39     0.81     7.95     0  02:23        0.80
  WS02006239           JUNCTION     0.37     0.80     8.01     0  02:18        0.80
  WS02006240           JUNCTION     0.35     0.79     8.08     0  02:36        0.79
  WS02006242           JUNCTION     0.42     0.90     8.17     0  02:25        0.90
  WS02006243           JUNCTION     0.35     0.84     8.26     0  02:47        0.84
  WS02006245           JUNCTION     0.36     0.86     8.34     0  02:18        0.85
  WS02006247           JUNCTION     0.38     0.89     8.39     0  02:36        0.89
  WS02006248           JUNCTION     0.35     0.86     8.44     0  02:18        0.85
  WS02006249           JUNCTION     0.38     1.09     8.69     0  02:18        1.09
  WS02006251           JUNCTION     0.38     0.91     8.58     0  02:28        0.91
  WS02006252           JUNCTION     0.27     1.50     9.74     0  00:00        0.61
  WS02006256           JUNCTION     0.60     2.35     9.28     0  00:00        2.35
  WSF200               JUNCTION     0.12     0.25     5.48     0  02:45        0.25
  YS02001580           JUNCTION     0.06     1.05     9.59     0  02:19        0.81
  YS02001583           JUNCTION     0.09     1.02     9.52     0  02:19        0.84
  YS02001586           JUNCTION     0.16     1.13     9.30     0  02:19        1.13
  YS02001590           JUNCTION     0.24     1.40     9.26     0  02:19        1.39
  YS02001593           JUNCTION     0.18     1.31     9.17     0  02:19        1.29
  YS02001596           JUNCTION     0.32     1.67     9.09     0  02:19        1.67
  YS02001600           JUNCTION     0.53     1.87     9.00     0  02:25        1.87
  YS02001601           JUNCTION     0.78     2.06     8.90     0  02:18        2.06
  YS02001602           JUNCTION     0.70     1.87     8.77     0  02:18        1.87
  YS02001605           JUNCTION     0.67     1.78     8.68     0  02:18        1.78
  YS02001607           JUNCTION     0.67     1.68     8.53     0  02:25        1.68
  YS02001610           JUNCTION     0.71     1.68     8.48     0  02:21        1.68
  YS02001613           JUNCTION     0.67     1.70     8.54     0  02:25        1.70
  YS02001616           JUNCTION     0.61     1.59     8.51     0  02:22        1.58
  YS02001619           JUNCTION     0.59     1.61     8.54     0  02:25        1.61
  YS02001622           JUNCTION     0.59     1.56     8.47     0  02:23        1.56
  YS02001625           JUNCTION     0.85     1.78     8.38     0  02:21        1.78
  YS02001629           JUNCTION     0.86     1.85     8.40     0  02:22        1.85
  YS02001633           JUNCTION     0.94     2.08     8.53     0  02:25        2.08
  YS02001641           JUNCTION     0.92     1.97     8.40     0  02:24        1.97
  YS02001644           JUNCTION     0.92     1.92     8.35     0  02:24        1.92
  YS02001647           JUNCTION     0.73     1.86     8.47     0  02:25        1.86
  YS02001649           JUNCTION     0.88     2.05     8.44     0  02:25        2.05
  YS02001652           JUNCTION     0.71     2.16     8.76     0  02:25        2.16
  YS02001655           JUNCTION     0.53     2.01     8.86     0  02:25        2.01
  YS02001658           JUNCTION     0.33     1.55     8.69     0  02:25        1.55
  YS02001661           JUNCTION     0.18     1.25     8.66     0  02:25        1.06
  YS02001664           JUNCTION     0.05     0.54     8.46     0  02:24        0.45
  YS02001745           JUNCTION     0.07     0.72     8.24     0  02:24        0.68
  YS02001748           JUNCTION     0.36     1.49     8.56     0  02:24        1.11
  YS02001751           JUNCTION     0.49     1.63     8.51     0  02:25        1.63
  YS02001754           JUNCTION     0.68     1.94     8.55     0  02:25        1.94
  YS02001757           JUNCTION     0.96     2.21     8.47     0  02:25        2.21
  YS02001759           JUNCTION     0.87     2.21     8.57     0  02:25        2.21
  YS02001762           JUNCTION     0.85     2.15     8.55     0  02:25        2.15
  YS02001765           JUNCTION     0.81     2.10     8.55     0  02:25        2.10
  YS02001767           JUNCTION     0.78     2.03     8.52     0  02:25        2.03
  YS02001770           JUNCTION     0.79     1.95     8.44     0  02:25        1.95
  YS02001774           JUNCTION     0.85     2.01     8.43     0  02:25        1.95
  YS02001779           JUNCTION     0.62     1.68     8.37     0  02:22        1.68
  YS02001783           JUNCTION     0.45     1.68     7.82     0  02:22        1.68
  YS02001784           JUNCTION     0.50     1.61     7.67     0  02:22        1.61
  YS02001786           JUNCTION     0.50     1.42     7.45     0  02:14        1.41
  YS02001788           JUNCTION     0.51     1.24     7.21     0  02:22        1.24
  YS02001790           JUNCTION     0.74     1.66     7.30     0  02:11        1.34
  YS02001791           JUNCTION     0.83     1.45     6.92     0  02:11        1.35
  YS02001793           JUNCTION     1.28     1.91     6.75     0  02:25        1.91
  YS02001882           JUNCTION     0.27     1.72     8.44     0  02:22        1.72
  YS02001884           JUNCTION     0.36     1.81     8.43     0  02:22        1.81
  YS02001887           JUNCTION     0.43     1.86     8.40     0  02:22        1.86
  YS02001890           JUNCTION     0.46     1.81     8.32     0  02:21        1.81
  YS02001895           JUNCTION     0.24     1.61     8.36     0  02:22        1.61
  YS02001898           JUNCTION     0.25     1.65     8.39     0  02:22        1.65
  YS02001901           JUNCTION     0.36     1.77     8.38     0  02:22        1.77
  YS02001904           JUNCTION     0.34     1.71     8.34     0  02:22        1.71
  YS02001907           JUNCTION     0.65     1.96     8.25     0  02:22        1.96
  YS02001910           JUNCTION     0.45     2.10     8.61     0  02:22        2.10
  YS02001915           JUNCTION     0.27     2.00     8.72     0  02:22        2.00
  YS02001918           JUNCTION     0.13     1.81     8.88     0  02:22        1.81
  YS02001920           JUNCTION     0.21     2.12     9.12     0  02:22        1.85
  YS02001923           JUNCTION     0.10     2.03     9.29     0  02:22        1.56
  YS02001926           JUNCTION     0.13     1.90     9.35     0  02:22        1.37
  YS02001929           JUNCTION     0.07     1.78     9.47     0  02:22        1.12
  YS02006553           JUNCTION     0.65     2.04     8.33     0  02:22        2.04
  YS02006556           JUNCTION     0.63     2.21     8.52     0  02:25        2.21
  YS02006558           JUNCTION     0.67     2.27     8.53     0  02:25        2.27
  YS02006561           JUNCTION     0.15     1.30     7.96     0  02:22        1.30
  YS02163301           JUNCTION     0.88     2.03     8.55     0  02:25        2.03
  YS02163601           JUNCTION     0.98     2.05     8.45     0  02:24        2.04
  YS02164001           JUNCTION     0.91     1.97     8.42     0  02:24        1.97
  CC-1                 OUTFALL      0.00     0.00     0.00     0  00:00        0.00
  CC-2                 OUTFALL      0.00     0.00     0.00     0  00:00        0.00
  JK-1                 OUTFALL      0.00     0.00     0.00     0  00:00        0.00
  JK-2                 OUTFALL      0.00     0.00     0.00     0  00:00        0.00
  WSC                  OUTFALL      0.29     0.37     1.04     0  03:14        0.37
  CC-storage           STORAGE      1.53     2.08     7.58     0  07:34        2.08
  JK-storage           STORAGE      4.37     5.80     6.60     0  02:12        5.80
  XR-storage           STORAGE      0.27     5.00     3.00     0  00:00        4.91
  
  
  *******************
  Node Inflow Summary
  *******************
  
  -------------------------------------------------------------------------------------------------
                                  Maximum  Maximum                  Lateral       Total        Flow
                                  Lateral    Total  Time of Max      Inflow      Inflow     Balance
                                   Inflow   Inflow   Occurrence      Volume      Volume       Error
  Node                 Type           LPS      LPS  days hr:min    10^6 ltr    10^6 ltr     Percent
  -------------------------------------------------------------------------------------------------
  WS02001211           JUNCTION      7.35   389.13     0  03:41       0.212        11.1       0.348
  WS02001212           JUNCTION      0.00   390.86     0  03:41           0        11.1       0.207
  WS02001213           JUNCTION      0.00   392.61     0  03:40           0        11.1       0.238
  WS02003059           JUNCTION      0.00   395.66     0  03:39           0          11       0.328
  WS02003060           JUNCTION     16.53   816.05     0  03:12       0.476        14.3       0.151
  WS02003066           JUNCTION      0.00   411.87     0  03:11           0        2.85       0.047
  WS02003067           JUNCTION      0.00   411.86     0  03:11           0        2.85       0.147
  WS02003069           JUNCTION      0.32   816.35     0  03:12     0.00922        14.3       0.160
  WS02003072           JUNCTION      0.00   816.35     0  03:13           0        14.3       0.208
  WS02003073           JUNCTION      1.82   818.17     0  03:13      0.0524        14.3       0.223
  WS02004138           JUNCTION      0.00   380.00     0  00:00           0        10.9       0.059
  WS02004139           JUNCTION      0.32   395.52     0  00:00     0.00924        10.9       0.407
  WS02004401           JUNCTION      0.00   412.11     0  02:39           0        2.96       0.433
  WS02004402           JUNCTION      0.00   412.09     0  03:23           0        2.95       0.413
  WS02004403           JUNCTION      0.00   412.07     0  02:40           0        2.94       0.388
  WS02004404           JUNCTION      0.16   412.17     0  03:23     0.00467        2.93       0.314
  WS02004405           JUNCTION      0.04   412.20     0  03:23      0.0011        2.93       0.469
  WS02004406           JUNCTION      0.00   412.30     0  03:25           0        2.91       0.780
  WS02004407           JUNCTION      0.00   412.07     0  02:40           0        2.89       0.070
  WS02004409           JUNCTION      0.00   412.00     0  03:24           0        2.89       0.123
  WS02004410           JUNCTION      0.00   411.97     0  03:24           0        2.88       0.169
  WS02004411           JUNCTION      0.00   411.94     0  03:25           0        2.88       0.204
  WS02004412           JUNCTION      0.00   411.91     0  03:25           0        2.87       0.270
  WS02004413           JUNCTION      0.00   411.92     0  03:25           0        2.86       0.478
  WS02006109           JUNCTION      1.23   412.44     0  02:22      0.0354        3.06       0.525
  WS02006110           JUNCTION      0.00   411.94     0  02:22           0        3.04       0.592
  WS02006111           JUNCTION      0.00   423.53     0  02:20           0        3.01       0.142
  WS02006112           JUNCTION      0.00   414.30     0  03:22           0        3.01       0.822
  WS02006113           JUNCTION      0.00   412.05     0  03:22           0        3.02       0.285
  WS02006115           JUNCTION      0.00   412.61     0  03:22           0        2.99       0.411
  WS02006116           JUNCTION      0.00   412.26     0  03:22           0        2.97       0.289
  WS02006228           JUNCTION      0.00   412.38     0  02:22           0        3.03       0.343
  WS02006229           JUNCTION      0.00   410.91     0  02:22           0        3.04       0.377
  WS02006230           JUNCTION     10.28   410.61     0  02:23       0.296        3.05       0.368
  WS02006231           JUNCTION      0.00   400.41     0  02:18           0        2.77       0.395
  WS02006232           JUNCTION      0.00   400.40     0  02:19           0        2.79       0.826
  WS02006234           JUNCTION      0.00   401.51     0  02:18           0         2.8       0.120
  WS02006235           JUNCTION      0.00   401.83     0  02:18           0        2.82       0.574
  WS02006238           JUNCTION      0.00   401.78     0  02:22           0         2.8      -0.317
  WS02006239           JUNCTION      0.00   401.21     0  02:18           0        2.79       0.019
  WS02006240           JUNCTION      0.00   401.67     0  02:18           0        2.79       0.312
  WS02006242           JUNCTION      0.00   401.77     0  02:18           0        2.81       0.528
  WS02006243           JUNCTION      0.00   402.59     0  02:18           0        2.81       0.244
  WS02006245           JUNCTION      0.00   403.34     0  02:32           0        2.84       0.860
  WS02006247           JUNCTION      0.00   400.95     0  02:18           0        2.84       0.244
  WS02006248           JUNCTION      0.00   405.83     0  02:18           0        2.85       0.217
  WS02006249           JUNCTION      0.00   474.07     0  01:51           0        2.88       0.886
  WS02006251           JUNCTION      0.08   403.36     0  07:51     0.00222        2.88       0.190
  WS02006252           JUNCTION      0.00   400.00     0  00:00           0        2.88      -0.101
  WS02006256           JUNCTION      0.00   300.00     0  00:00           0      0.0243      -5.447
  WSF200               JUNCTION      0.00   411.86     0  03:12           0        2.85       0.022
  YS02001580           JUNCTION      0.00   109.33     0  02:19           0     0.00389      -6.379
  YS02001583           JUNCTION      0.00   159.99     0  02:18           0      0.0148      -5.042
  YS02001586           JUNCTION    512.43   512.46     0  02:26        1.02        1.03       0.109
  YS02001590           JUNCTION      0.00   320.45     0  02:25           0       0.926      -0.000
  YS02001593           JUNCTION      0.00   319.19     0  02:25           0       0.926       0.019
  YS02001596           JUNCTION      0.00   318.10     0  02:27           0       0.926       0.053
  YS02001600           JUNCTION      0.00   318.20     0  02:28           0       0.927       0.434
  YS02001601           JUNCTION    890.42  1207.82     0  02:25        1.39        2.31       0.380
  YS02001602           JUNCTION      0.00   507.33     0  02:18           0         1.7       0.534
  YS02001605           JUNCTION      0.00   507.78     0  02:18           0        1.63       0.834
  YS02001607           JUNCTION      0.00   508.55     0  02:18           0        1.61       1.034
  YS02001610           JUNCTION      0.00   511.99     0  02:18           0        1.61       1.082
  YS02001613           JUNCTION      0.00   509.81     0  02:18           0         1.4       1.238
  YS02001616           JUNCTION      0.00   507.38     0  02:18           0        1.39       1.061
  YS02001619           JUNCTION    890.22   934.00     0  02:21        1.57        2.94       0.481
  YS02001622           JUNCTION      0.00   933.43     0  02:21           0        2.92       0.697
  YS02001625           JUNCTION      0.00   963.94     0  02:27           0        2.92       1.421
  YS02001629           JUNCTION      0.00   932.50     0  02:21           0        2.51       0.670
  YS02001633           JUNCTION    688.70  1391.58     0  02:21        1.04        3.49       0.913
  YS02001641           JUNCTION      0.00  1390.26     0  02:21           0        3.41       0.616
  YS02001644           JUNCTION    592.34  1787.25     0  02:21       0.855        4.24       0.611
  YS02001647           JUNCTION      0.00  1787.42     0  02:21           0        4.17       0.610
  YS02001649           JUNCTION      0.00  1968.27     0  02:21           0        4.92       0.760
  YS02001652           JUNCTION      0.00   727.92     0  02:25           0       0.804       2.538
  YS02001655           JUNCTION      0.15   726.73     0  02:25     0.00443       0.819       2.039
  YS02001658           JUNCTION      0.00   725.47     0  02:25           0       0.822       0.876
  YS02001661           JUNCTION      0.00   786.15     0  02:25           0       0.816       0.017
  YS02001664           JUNCTION    606.34   606.34     0  02:25       0.809       0.809      -0.022
  YS02001745           JUNCTION    365.94   365.94     0  02:25       0.469        0.47       0.346
  YS02001748           JUNCTION      0.04   528.39     0  02:24      0.0013       0.478       1.218
  YS02001751           JUNCTION      0.01   434.63     0  02:22    0.000317       0.485       3.445
  YS02001754           JUNCTION      0.26   411.80     0  02:24     0.00749       0.482       4.536
  YS02001757           JUNCTION      0.00  3236.66     0  02:25           0        6.86       1.378
  YS02001759           JUNCTION    534.18  1253.68     0  02:25       0.684        1.56       1.488
  YS02001762           JUNCTION      0.00   716.31     0  02:25           0       0.897       2.376
  YS02001765           JUNCTION      0.00   716.79     0  02:25           0       0.921       2.688
  YS02001767           JUNCTION      0.54   716.94     0  02:25      0.0154       0.957       3.825
  YS02001770           JUNCTION    729.14   729.14     0  02:25        1.01        1.03       3.046
  YS02001774           JUNCTION      0.00   304.00     0  02:22           0      0.0702      55.639
  YS02001779           JUNCTION      0.01   306.79     0  02:22    0.000144      0.0288      80.405
  YS02001783           JUNCTION      0.00   984.30     0  02:25           0        2.64       0.263
  YS02001784           JUNCTION      1.06   983.80     0  02:25      0.0305        2.66       0.392
  YS02001786           JUNCTION      0.06   985.45     0  02:25     0.00162        2.65       0.500
  YS02001788           JUNCTION      0.07   985.51     0  02:25     0.00204        2.64       0.514
  YS02001790           JUNCTION      0.15   984.81     0  02:25     0.00446        2.63       0.643
  YS02001791           JUNCTION      0.00   986.89     0  02:25           0        2.61       0.566
  YS02001793           JUNCTION      0.00   987.96     0  02:25           0         2.6       0.586
  YS02001882           JUNCTION      0.00    49.09     0  02:20           0      0.0125       4.541
  YS02001884           JUNCTION      0.00    87.73     0  02:20           0      0.0485       5.188
  YS02001887           JUNCTION    566.40   571.02     0  02:25       0.714       0.748       0.603
  YS02001890           JUNCTION      0.00   573.42     0  02:25           0       0.707       0.715
  YS02001895           JUNCTION      0.00   516.56     0  02:25           0       0.694       0.202
  YS02001898           JUNCTION      0.00   513.79     0  02:26           0       0.692       0.060
  YS02001901           JUNCTION      0.00   513.26     0  02:26           0       0.695       0.454
  YS02001904           JUNCTION      0.00   513.41     0  02:26           0       0.698       0.397
  YS02001907           JUNCTION      0.00  1455.18     0  02:23           0        2.14       0.841
  YS02001910           JUNCTION      0.00   973.57     0  02:23           0        1.45       0.483
  YS02001915           JUNCTION    598.46   972.51     0  02:23       0.873        1.49       0.100
  YS02001918           JUNCTION      0.00   455.15     0  02:21           0        0.65      -0.006
  YS02001920           JUNCTION      2.87   449.75     0  02:23      0.0827       0.631       0.075
  YS02001923           JUNCTION      0.04   451.08     0  02:21     0.00109       0.532      -0.122
  YS02001926           JUNCTION      0.05   682.86     0  02:22      0.0015       0.509      -0.260
  YS02001929           JUNCTION    305.73   513.40     0  02:22       0.491       0.495      -0.126
  YS02006553           JUNCTION      0.00   679.47     0  02:34           0        1.69       0.701
  YS02006556           JUNCTION      0.00   678.66     0  02:34           0         1.7       0.456
  YS02006558           JUNCTION    729.04   980.87     0  02:25       0.987        2.66       0.131
  YS02006561           JUNCTION      0.00   981.76     0  02:25           0        2.64      -0.015
  YS02163301           JUNCTION      0.00   932.31     0  02:21           0        2.49       0.943
  YS02163601           JUNCTION      0.11  1392.34     0  02:21     0.00317        3.45       0.868
  YS02164001           JUNCTION      0.00  1391.03     0  02:21           0        3.42       0.567
  CC-1                 OUTFALL       0.00   683.00     0  00:00           0       0.208       0.000
  CC-2                 OUTFALL       0.00   683.00     0  00:00           0       0.208       0.000
  JK-1                 OUTFALL       0.00  1000.00     0  00:00           0      0.0791       0.000
  JK-2                 OUTFALL       0.00  1000.00     0  00:00           0      0.0791       0.000
  WSC                  OUTFALL       0.00   818.16     0  03:14           0        14.3       0.000
  CC-storage           STORAGE       0.00  3252.77     0  02:25           0        8.97       0.415
  JK-storage           STORAGE       0.00   989.42     0  02:25           0        2.74       0.588
  XR-storage           STORAGE     200.00   200.00     0  00:00        5.76        6.36     -41.886
  
  
  **********************
  Node Surcharge Summary
  **********************
  
  Surcharging occurs when water rises above the top of the highest conduit.
  ---------------------------------------------------------------------
                                               Max. Height   Min. Depth
                                   Hours       Above Crown    Below Rim
  Node                 Type      Surcharged         Meters       Meters
  ---------------------------------------------------------------------
  WS02006109           JUNCTION        1.22          0.017        1.803
  WS02006228           JUNCTION        1.21          0.019        2.181
  WS02006229           JUNCTION        1.24          0.029        2.421
  WS02006232           JUNCTION        1.35          0.050        1.430
  WS02006235           JUNCTION        1.24          0.056        1.234
  WS02006238           JUNCTION        1.29          0.088        1.342
  WS02006239           JUNCTION        1.25          0.063        1.227
  WS02006240           JUNCTION        1.26          0.079        1.311
  WS02006242           JUNCTION        1.41          0.174        0.646
  WS02006243           JUNCTION        1.29          0.133        0.637
  WS02006245           JUNCTION        1.29          0.147        0.703
  WS02006247           JUNCTION        1.33          0.180        0.580
  WS02006248           JUNCTION        1.28          0.137        0.243
  WS02006249           JUNCTION        1.32          0.390        0.000
  WS02006252           JUNCTION        1.93          1.100        0.000
  WS02006256           JUNCTION        3.15          2.050        0.000
  YS02001580           JUNCTION        0.33          0.450        0.000
  YS02001583           JUNCTION        0.34          0.382        0.118
  YS02001586           JUNCTION        0.46          0.510        0.000
  YS02001590           JUNCTION        0.52          0.749        0.001
  YS02001593           JUNCTION        0.53          0.690        0.150
  YS02001596           JUNCTION        0.63          0.937        0.133
  YS02001600           JUNCTION        0.84          1.190        0.000
  YS02001601           JUNCTION        5.98          1.440        0.000
  YS02001602           JUNCTION        5.92          1.270        0.000
  YS02001605           JUNCTION        5.89          1.180        0.000
  YS02001607           JUNCTION        0.56          0.680        0.000
  YS02001610           JUNCTION        0.60          0.680        0.000
  YS02001613           JUNCTION        0.56          0.700        0.000
  YS02001616           JUNCTION        0.51          0.594        0.016
  YS02001619           JUNCTION        0.49          0.610        0.000
  YS02001622           JUNCTION        0.50          0.563        0.057
  YS02001625           JUNCTION        0.89          0.780        0.000
  YS02001629           JUNCTION        0.46          0.470        0.000
  YS02001633           JUNCTION        5.74          1.060        0.000
  YS02001641           JUNCTION        5.71          0.965        0.135
  YS02001644           JUNCTION        5.70          0.920        0.000
  YS02001647           JUNCTION        0.71          0.859        0.041
  YS02001649           JUNCTION        5.64          1.050        0.000
  YS02001652           JUNCTION        0.53          1.130        0.000
  YS02001655           JUNCTION        0.20          1.014        0.186
  YS02001658           JUNCTION        0.07          0.549        0.751
  YS02001661           JUNCTION        0.01          0.181        1.209
  YS02001748           JUNCTION        0.02          0.406        0.784
  YS02001751           JUNCTION        0.10          0.628        0.572
  YS02001754           JUNCTION        0.28          0.892        0.258
  YS02001757           JUNCTION        5.64          1.210        0.000
  YS02001759           JUNCTION        5.63          1.210        0.000
  YS02001762           JUNCTION        5.63          1.150        0.000
  YS02001765           JUNCTION        5.63          1.100        0.000
  YS02001767           JUNCTION        5.63          1.030        0.000
  YS02001770           JUNCTION        5.46          0.920        0.000
  YS02001774           JUNCTION        5.63          1.010        0.040
  YS02001779           JUNCTION        0.26          0.680        0.000
  YS02001783           JUNCTION        0.52          0.878        0.722
  YS02001784           JUNCTION        0.53          0.805        0.685
  YS02001786           JUNCTION        0.53          0.619        0.811
  YS02001788           JUNCTION        0.52          0.438        1.042
  YS02001790           JUNCTION        5.79          0.860        0.297
  YS02001791           JUNCTION        5.80          0.653        1.267
  YS02001793           JUNCTION        5.83          0.914        1.686
  YS02001882           JUNCTION        0.31          0.723        0.107
  YS02001884           JUNCTION        0.32          0.749        0.121
  YS02001887           JUNCTION        0.34          0.814        0.136
  YS02001890           JUNCTION        0.35          0.760        0.000
  YS02001895           JUNCTION        0.30          0.613        0.137
  YS02001898           JUNCTION        0.29          0.624        0.116
  YS02001901           JUNCTION        0.33          0.770        0.100
  YS02001904           JUNCTION        0.32          0.711        0.139
  YS02001907           JUNCTION        0.52          0.950        0.000
  YS02001910           JUNCTION        0.37          1.100        0.000
  YS02001915           JUNCTION        0.30          1.000        0.000
  YS02001918           JUNCTION        0.23          0.810        0.000
  YS02001920           JUNCTION        0.24          1.116        0.024
  YS02001923           JUNCTION        0.01          0.820        0.000
  YS02001926           JUNCTION        0.01          0.900        0.000
  YS02001929           JUNCTION        0.01          0.780        0.000
  YS02006553           JUNCTION        0.53          1.044        0.146
  YS02006556           JUNCTION        0.45          1.167        0.183
  YS02006558           JUNCTION        0.44          1.165        0.235
  YS02006561           JUNCTION        0.26          0.497        0.653
  YS02163301           JUNCTION        5.65          1.030        0.000
  YS02163601           JUNCTION        5.75          1.054        0.026
  YS02164001           JUNCTION        5.72          0.966        0.134
  
  
  *********************
  Node Flooding Summary
  *********************
  
  Flooding refers to all water that overflows a node, whether it ponds or not.
  --------------------------------------------------------------------------
                                                             Total   Maximum
                                 Maximum   Time of Max       Flood    Ponded
                        Hours       Rate    Occurrence      Volume     Depth
  Node                 Flooded       LPS   days hr:min    10^6 ltr    Meters
  --------------------------------------------------------------------------
  WS02006249              0.01      0.30      0  02:18       0.000     0.000
  WS02006252              0.01    245.63      0  00:00       0.000     0.000
  WS02006256              0.02    293.19      0  00:00       0.005     0.000
  YS02001580              0.01     82.31      0  02:19       0.000     0.000
  YS02001586              0.25    194.71      0  02:26       0.091     0.000
  YS02001600              0.01      0.16      0  02:25       0.000     0.000
  YS02001601              0.39    809.80      0  02:25       0.603     0.000
  YS02001602              0.32     61.99      0  02:30       0.061     0.000
  YS02001605              0.01      0.51      0  02:18       0.000     0.000
  YS02001607              0.01      0.20      0  02:25       0.000     0.000
  YS02001610              0.25    371.16      0  02:26       0.197     0.000
  YS02001613              0.01      1.36      0  02:25       0.000     0.000
  YS02001619              0.01      2.03      0  02:25       0.000     0.000
  YS02001625              0.24    963.31      0  02:26       0.386     0.000
  YS02001629              0.05    106.44      0  02:25       0.011     0.000
  YS02001633              0.01      0.10      0  02:25       0.000     0.000
  YS02001644              0.05    379.82      0  02:25       0.040     0.000
  YS02001649              0.01      3.51      0  02:25       0.000     0.000
  YS02001652              0.01      2.99      0  02:25       0.000     0.000
  YS02001757              0.01      2.73      0  02:25       0.000     0.000
  YS02001759              0.01      2.34      0  02:25       0.000     0.000
  YS02001762              0.01      2.38      0  02:25       0.000     0.000
  YS02001765              0.01      1.88      0  02:25       0.000     0.000
  YS02001767              0.01      0.67      0  02:25       0.000     0.000
  YS02001770              0.01      7.63      0  02:25       0.000     0.000
  YS02001779              0.02    142.91      0  02:22       0.002     0.000
  YS02001890              0.07     61.98      0  02:25       0.008     0.000
  YS02001907              0.18   1144.91      0  02:25       0.435     0.000
  YS02001910              0.01     10.53      0  02:22       0.000     0.000
  YS02001915              0.01     18.57      0  02:22       0.000     0.000
  YS02001918              0.01    162.50      0  02:22       0.002     0.000
  YS02001923              0.01    116.59      0  02:22       0.000     0.000
  YS02001926              0.01    113.82      0  02:22       0.001     0.000
  YS02001929              0.01    179.56      0  02:22       0.001     0.000
  YS02163301              0.01      0.99      0  02:25       0.000     0.000
  JK-storage              5.79    988.97      0  02:25       2.246     0.000
  
  
  **********************
  Storage Volume Summary
  **********************
  
  ------------------------------------------------------------------------------------------------
                         Average    Avg   Evap  Exfil     Maximum    Max    Time of Max    Maximum
                          Volume   Pcnt   Pcnt   Pcnt      Volume   Pcnt     Occurrence    Outflow
  Storage Unit           1000 m³   Full   Loss   Loss     1000 m³   Full    days hr:min        LPS
  ------------------------------------------------------------------------------------------------
  CC-storage               4.268   66.6    0.0    0.0       5.810   90.6       0  07:34    1783.53
  JK-storage               0.220   75.4    0.0    0.0       0.291  100.0       0  02:12    2300.00
  XR-storage               0.033    2.3    0.0    0.0       0.600   41.7       0  00:00     380.00
  
  
  ***********************
  Outfall Loading Summary
  ***********************
  
  -----------------------------------------------------------
                         Flow       Avg       Max       Total
                         Freq      Flow      Flow      Volume
  Outfall Node           Pcnt       LPS       LPS    10^6 ltr
  -----------------------------------------------------------
  CC-1                   1.20    683.00    683.00       0.208
  CC-2                   1.20    683.00    683.00       0.208
  JK-1                   1.12    347.46   1000.00       0.079
  JK-2                   1.12    347.46   1000.00       0.079
  WSC                   99.93    538.27    818.16      14.267
  -----------------------------------------------------------
  System                20.91   2599.20   3366.35      14.842
  
  
  ********************
  Link Flow Summary
  ********************
  
  -----------------------------------------------------------------------------
                                 Maximum  Time of Max   Maximum    Max/    Max/
                                  |Flow|   Occurrence   |Veloc|    Full    Full
  Link                 Type          LPS  days hr:min     m/sec    Flow   Depth
  -----------------------------------------------------------------------------
  1                    CONDUIT    818.16     0  03:14      3.15    0.28    0.37
  WS02001211WS02001212 CONDUIT    390.86     0  03:41      0.78    0.30    0.64
  WS02001212WS02001213 CONDUIT    392.61     0  03:40      1.32    0.61    0.45
  WS02001213WS02003059 CONDUIT    395.66     0  03:39      0.85    0.65    0.75
  WS02003059WS02003060 CONDUIT    399.95     0  03:40      0.95    0.26    0.63
  WS02003060WS02003069 CONDUIT    816.03     0  03:12      1.80    0.32    0.42
  WS02003066WSF200     CONDUIT    411.86     0  03:12      2.69    0.07    0.19
  WS02003067WS02003066 CONDUIT    411.87     0  03:11      1.04    0.13    0.38
  WS02003069WS02003072 CONDUIT    816.35     0  03:13      1.55    0.39    0.47
  WS02003072WS02003073 CONDUIT    816.35     0  03:13      1.64    1.76    0.45
  WS02004138WS02004139 CONDUIT    395.20     0  00:00      3.65    0.08    0.43
  WS02004139WS02001211 CONDUIT    381.78     0  03:41      0.91    0.48    0.59
  WS02004401WS02004402 CONDUIT    412.09     0  03:23      0.99    0.49    0.77
  WS02004402WS02004403 CONDUIT    412.07     0  02:40      0.99    0.59    0.79
  WS02004403WS02004404 CONDUIT    412.01     0  03:23      0.93    0.30    0.84
  WS02004404WS02004405 CONDUIT    412.16     0  03:23      1.10    4.04    0.88
  WS02004405WS02004406 CONDUIT    412.30     0  03:25      1.03    0.81    0.88
  WS02004406WS02004407 CONDUIT    412.07     0  02:40      0.89    0.18    0.57
  WS02004407WS02004409 CONDUIT    412.00     0  03:24      1.41    0.15    0.42
  WS02004409WS02004410 CONDUIT    411.97     0  03:24      0.92    0.53    0.58
  WS02004410WS02004411 CONDUIT    411.94     0  03:25      0.86    0.56    0.60
  WS02004411WS02004412 CONDUIT    411.91     0  03:25      0.81    0.59    0.61
  WS02004412WS02004413 CONDUIT    411.92     0  03:25      0.70    0.28    0.70
  WS02004413WS02003067 CONDUIT    411.86     0  03:11      0.96    0.18    0.53
  WS02006109WS02006110 CONDUIT    411.94     0  02:22      0.84    0.79    0.94
  WS02006110WS02006113 CONDUIT    412.05     0  03:22      1.03    0.37    0.75
  WS02006111WS02006112 CONDUIT    414.30     0  03:22      1.83    0.20    0.65
  WS02006112WS02006115 CONDUIT    412.61     0  03:22      0.71    0.24    0.78
  WS02006113WS02006111 CONDUIT    423.53     0  02:20      2.25    0.51    0.40
  WS02006115WS02006116 CONDUIT    412.26     0  03:22      0.98    0.53    0.66
  WS02006116WS02004401 CONDUIT    412.11     0  02:39      1.00    0.57    0.74
  WS02006228WS02006109 CONDUIT    411.21     0  02:22      1.06    1.80    1.00
  WS02006229WS02006228 CONDUIT    412.38     0  02:22      1.13    1.37    1.00
  WS02006230WS02006229 CONDUIT    410.91     0  02:22      1.22    9.14    1.00
  WS02006231WS02006230 CONDUIT    400.33     0  02:23      1.37    6.07    0.77
  WS02006232WS02006231 CONDUIT    400.41     0  02:18      1.08    0.84    0.92
  WS02006234WS02006232 CONDUIT    400.40     0  02:19      1.40    0.81    1.00
  WS02006235WS02006234 CONDUIT    401.51     0  02:18      1.30    4.24    0.99
  WS02006238WS02006235 CONDUIT    401.83     0  02:24      1.48    0.90    1.00
  WS02006239WS02006238 CONDUIT    401.78     0  02:22      1.21    1.29    1.00
  WS02006240WS02006239 CONDUIT    401.21     0  02:18      1.30    1.26    1.00
  WS02006242WS02006240 CONDUIT    401.67     0  02:18      1.17    1.60    1.00
  WS02006243WS02006242 CONDUIT    401.77     0  02:18      1.43    0.86    1.00
  WS02006245WS02006243 CONDUIT    402.59     0  02:18      1.45    1.19    1.00
  WS02006247WS02006245 CONDUIT    403.34     0  02:32      1.43    3.20    1.00
  WS02006248WS02006247 CONDUIT    400.95     0  02:18      1.45    0.87    1.00
  WS02006249WS02006248 CONDUIT    405.83     0  02:18      1.40    2.22    1.00
  WS02006251WS02006249 CONDUIT    474.07     0  01:51      1.99    1.37    1.00
  WS02006252WS02006251 CONDUIT    403.28     0  07:51     27.11    1.48    1.00
  WS02006256WS02006235 CONDUIT    288.91     0  00:00      4.23    3.06    1.00
  WSF200WS02003060     CONDUIT    411.86     0  03:12      1.43    0.09    0.30
  YS02001580YS02001583 CONDUIT    109.33     0  02:19      0.66    0.42    1.00
  YS02001583YS02001586 CONDUIT    154.50     0  02:18      0.66    0.23    1.00
  YS02001586YS02001590 CONDUIT    320.45     0  02:25      1.27    0.56    1.00
  YS02001590YS02001593 CONDUIT    319.19     0  02:25      1.13    2.00    1.00
  YS02001593YS02001596 CONDUIT    318.10     0  02:27      1.63    0.50    1.00
  YS02001596YS02001600 CONDUIT    318.20     0  02:28      1.13    0.62    1.00
  YS02001600YS02001601 CONDUIT    318.85     0  02:28      1.13    0.55    1.00
  YS02001601YS02001602 CONDUIT    507.33     0  02:18      1.79    1.83    1.00
  YS02001602YS02001605 CONDUIT    507.78     0  02:18      1.80   10.75    1.00
  YS02001605YS02001607 CONDUIT    508.55     0  02:18      1.80    2.79    1.00
  YS02001607YS02001610 CONDUIT    511.99     0  02:18      0.65    0.49    1.00
  YS02001610YS02001613 CONDUIT    509.81     0  02:18      0.65    0.59    1.00
  YS02001613YS02001616 CONDUIT    507.38     0  02:18      0.65    0.43    1.00
  YS02001616YS02001619 CONDUIT    493.08     0  02:18      0.66    0.86    1.00
  YS02001619YS02001622 CONDUIT    933.43     0  02:21      1.19    1.38    1.00
  YS02001622YS02001625 CONDUIT    932.94     0  02:21      1.19    0.50    1.00
  YS02001625YS02001629 CONDUIT    932.50     0  02:21      1.19    0.44    1.00
  YS02001629YS02163301 CONDUIT    932.31     0  02:21      1.19    1.15    1.00
  YS02001633YS02163601 CONDUIT   1392.23     0  02:21      1.77    1.46    1.00
  YS02001641YS02001644 CONDUIT   1389.77     0  02:21      1.77    4.49    1.00
  YS02001644YS02001647 CONDUIT   1787.42     0  02:21      2.28    1.05    1.00
  YS02001647YS02001649 CONDUIT   1772.03     0  02:21      2.34    0.94    1.00
  YS02001649YS02001757 CONDUIT   1953.29     0  02:21      2.52    1.19    1.00
  YS02001652YS02001649 CONDUIT    730.25     0  02:25      0.93    0.36    1.00
  YS02001655YS02001652 CONDUIT    727.92     0  02:25      1.27    0.35    1.00
  YS02001658YS02001655 CONDUIT    726.58     0  02:25      1.89    0.31    1.00
  YS02001661YS02001658 CONDUIT    725.47     0  02:25      2.31    0.28    1.00
  YS02001664YS02001661 CONDUIT    786.15     0  02:25      2.30    0.25    0.75
  YS02001745YS02001748 CONDUIT    528.34     0  02:24      2.12    0.20    0.86
  YS02001748YS02001751 CONDUIT    412.81     0  02:25      1.64    0.21    1.00
  YS02001751YS02001754 CONDUIT    411.54     0  02:24      1.39    0.20    1.00
  YS02001754YS02001757 CONDUIT    411.03     0  02:25      0.52    0.17    1.00
  YS02001757CaochengTiaoxuchi CONDUIT   3252.77     0  02:25      4.14    1.41    1.00
  YS02001759YS02001757 CONDUIT   1268.04     0  02:25      1.61    0.90    1.00
  YS02001762YS02001759 CONDUIT    720.66     0  02:25      0.92    0.83    1.00
  YS02001765YS02001762 CONDUIT    716.31     0  02:25      0.91    0.67    1.00
  YS02001767YS02001765 CONDUIT    716.79     0  02:25      0.91    0.90    1.00
  YS02001770YS02001767 CONDUIT    716.40     0  02:25      0.91    2.84    1.00
  YS02001774YS02001770 CONDUIT    304.00     0  02:22      0.39    0.19    1.00
  YS02001779YS02001774 CONDUIT    306.78     0  02:22      0.40    0.15    1.00
  YS02001783YS02001784 CONDUIT    982.74     0  02:25      1.96    1.35    1.00
  YS02001784YS02001785 CONDUIT    985.39     0  02:25      1.96    2.29    1.00
  YS02001786YS02001788 CONDUIT    985.44     0  02:25      1.96    1.90    1.00
  YS02001788YS02001790 CONDUIT    984.65     0  02:25      1.97    0.73    1.00
  YS02001790YS02001791 CONDUIT    986.89     0  02:25      2.29    1.07    1.00
  YS02001791YS02001793 CONDUIT    987.96     0  02:25      4.33    0.42    1.00
  YS02001793JiankangQianchi CONDUIT    989.42     0  02:25      1.54    0.08    1.00
  YS02001882YS02001884 CONDUIT     49.09     0  02:20      0.09    0.06    1.00
  YS02001884YS02001887 CONDUIT     87.73     0  02:20      0.11    0.12    1.00
  YS02001887YS02001890 CONDUIT    573.42     0  02:25      0.73    0.98    1.00
  YS02001890YS02001895 CONDUIT    516.56     0  02:25      0.66    0.24    1.00
  YS02001895YS02001898 CONDUIT    513.79     0  02:26      0.65    0.89    1.00
  YS02001898YS02001901 CONDUIT    513.26     0  02:26      0.65    0.33    1.00
  YS02001901YS02001904 CONDUIT    513.41     0  02:26      0.65    0.80    1.00
  YS02001904YS02001907 CONDUIT    513.71     0  02:26      0.65    0.18    1.00
  YS02001907YS02006553 CONDUIT    679.47     0  02:34      0.75    0.80    1.00
  YS02001910YS02001907 CONDUIT    974.10     0  02:23      1.24    0.55    1.00
  YS02001915YS02001910 CONDUIT    973.57     0  02:23      1.24    0.48    1.00
  YS02001918YS02001915 CONDUIT    455.15     0  02:21      0.60    0.25    1.00
  YS02001920YS02001918 CONDUIT    450.56     0  02:23      0.64    0.44    1.00
  YS02001923YS02001920 CONDUIT    446.88     0  02:23      0.70    0.20    1.00
  YS02001926YS02001923 CONDUIT    435.45     0  02:23      0.95    0.62    1.00
  YS02001929YS02001926 CONDUIT    432.23     0  02:23      1.12    0.21    1.00
  YS02006553YS02006556 CONDUIT    678.66     0  02:34      0.86    0.58    1.00
  YS02006556YS02006558 CONDUIT    682.29     0  02:34      0.87    0.54    1.00
  YS02006558YS02006561 CONDUIT    981.76     0  02:25      3.47    2.17    1.00
  YS02006561YS02001783 CONDUIT    984.30     0  02:25      1.97    0.51    1.00
  YS02163301YS02001633 CONDUIT    931.79     0  02:21      1.19    0.88    1.00
  YS02163601YS02164001 CONDUIT   1391.03     0  02:21      1.77    1.23    1.00
  YS02164001YS02001641 CONDUIT   1390.26     0  02:21      1.77    1.90    1.00
  CC-R1                PUMP       683.00     0  00:00              1.00
  CC-R2                PUMP       683.00     0  00:00              1.00
  CC-S1                PUMP       200.00     0  00:00              1.00
  CC-S2                PUMP       200.00     0  00:00              1.00
  JK-R1                PUMP      1000.00     0  00:00              1.00
  JK-R2                PUMP      1000.00     0  00:00              1.00
  JK-S                 PUMP       300.00     0  00:00              1.00
  XR-1                 PUMP        95.00     0  00:00              1.00
  XR-2                 PUMP        95.00     0  00:00              1.00
  XR-3                 PUMP        95.00     0  00:00              1.00
  XR-4                 PUMP        95.00     0  00:00              1.00
  
  
  ***************************
  Flow Classification Summary
  ***************************
  
  -------------------------------------------------------------------------------------
                      Adjusted    ---------- Fraction of Time in Flow Class ---------- 
                       /Actual         Up    Down  Sub   Sup   Up    Down  Norm  Inlet 
  Conduit               Length    Dry  Dry   Dry   Crit  Crit  Crit  Crit  Ltd   Ctrl  
  -------------------------------------------------------------------------------------
  1                       1.00   0.00  0.00  0.00  0.00  1.00  0.00  0.00  0.20  0.00
  WS02001211WS02001212    1.00   0.00  0.00  0.00  1.00  0.00  0.00  0.00  0.00  0.00
  WS02001212WS02001213    1.00   0.00  0.00  0.00  0.35  0.00  0.65  0.00  0.00  0.00
  WS02001213WS02003059    1.00   0.00  0.00  0.00  0.99  0.00  0.00  0.00  0.00  0.00
  WS02003059WS02003060    1.00   0.00  0.00  0.00  1.00  0.00  0.00  0.00  0.00  0.00
  WS02003060WS02003069    1.00   0.00  0.00  0.00  0.99  0.01  0.00  0.00  0.00  0.00
  WS02003066WSF200        1.00   0.02  0.10  0.00  0.00  0.88  0.00  0.00  0.87  0.00
  WS02003067WS02003066    1.00   0.10  0.02  0.00  0.89  0.00  0.00  0.00  0.00  0.00
  WS02003069WS02003072    1.00   0.00  0.00  0.00  0.99  0.01  0.00  0.00  0.00  0.00
  WS02003072WS02003073    1.00   0.00  0.00  0.00  0.00  0.00  0.00  1.00  0.00  0.00
  WS02004138WS02004139    1.00   0.00  0.00  0.00  0.99  0.01  0.00  0.00  1.00  0.00
  WS02004139WS02001211    1.00   0.00  0.00  0.00  1.00  0.00  0.00  0.00  0.00  0.00
  WS02004401WS02004402    1.00   0.02  0.00  0.00  0.98  0.00  0.00  0.00  0.00  0.00
  WS02004402WS02004403    1.00   0.02  0.00  0.00  0.98  0.00  0.00  0.00  0.00  0.00
  WS02004403WS02004404    1.00   0.00  0.03  0.00  0.97  0.00  0.00  0.00  0.00  0.00
  WS02004404WS02004405    1.00   0.00  0.00  0.00  1.00  0.00  0.00  0.00  0.00  0.00
  WS02004405WS02004406    1.00   0.00  0.00  0.00  1.00  0.00  0.00  0.00  0.00  0.00
  WS02004406WS02004407    1.00   0.00  0.05  0.00  0.95  0.00  0.00  0.00  0.00  0.00
  WS02004407WS02004409    1.00   0.05  0.00  0.00  0.94  0.01  0.00  0.00  0.94  0.00
  WS02004409WS02004410    1.00   0.05  0.00  0.00  0.95  0.00  0.00  0.00  0.02  0.00
  WS02004410WS02004411    1.00   0.05  0.00  0.00  0.95  0.00  0.00  0.00  0.00  0.00
  WS02004411WS02004412    1.00   0.05  0.00  0.00  0.95  0.00  0.00  0.00  0.00  0.00
  WS02004412WS02004413    1.00   0.05  0.00  0.00  0.94  0.00  0.00  0.00  0.01  0.00
  WS02004413WS02003067    1.00   0.06  0.04  0.00  0.00  0.00  0.90  0.00  0.00  0.00
  WS02006109WS02006110    1.00   0.00  0.01  0.00  0.98  0.00  0.01  0.00  0.00  0.00
  WS02006110WS02006113    1.00   0.01  0.01  0.00  0.98  0.00  0.00  0.00  0.00  0.00
  WS02006111WS02006112    1.00   0.02  0.00  0.00  0.98  0.00  0.00  0.00  0.98  0.00
  WS02006112WS02006115    1.00   0.02  0.00  0.00  0.97  0.00  0.00  0.00  0.00  0.00
  WS02006113WS02006111    1.00   0.02  0.00  0.00  0.00  0.98  0.00  0.00  0.11  0.00
  WS02006115WS02006116    1.00   0.02  0.00  0.00  0.97  0.00  0.00  0.01  0.00  0.00
  WS02006116WS02004401    1.00   0.02  0.00  0.00  0.98  0.00  0.00  0.00  0.00  0.00
  WS02006228WS02006109    1.00   0.00  0.00  0.00  1.00  0.00  0.00  0.00  0.00  0.00
  WS02006229WS02006228    1.00   0.00  0.00  0.00  0.99  0.00  0.00  0.01  0.00  0.00
  WS02006230WS02006229    1.00   0.00  0.00  0.00  0.99  0.00  0.00  0.01  0.00  0.00
  WS02006231WS02006230    1.00   0.00  0.00  0.00  0.18  0.00  0.81  0.00  0.00  0.00
  WS02006232WS02006231    1.00   0.00  0.00  0.00  0.99  0.00  0.01  0.00  0.00  0.00
  WS02006234WS02006232    1.00   0.00  0.00  0.00  1.00  0.00  0.00  0.00  0.51  0.00
  WS02006235WS02006234    1.00   0.00  0.00  0.00  0.45  0.00  0.55  0.00  0.00  0.00
  WS02006238WS02006235    1.00   0.00  0.00  0.00  1.00  0.00  0.00  0.00  0.00  0.00
  WS02006239WS02006238    1.00   0.00  0.00  0.00  1.00  0.00  0.00  0.00  0.60  0.00
  WS02006240WS02006239    1.00   0.00  0.00  0.00  0.36  0.00  0.00  0.64  0.02  0.00
  WS02006242WS02006240    1.00   0.00  0.00  0.00  0.99  0.00  0.01  0.00  0.00  0.00
  WS02006243WS02006242    1.00   0.00  0.00  0.00  0.99  0.00  0.00  0.01  0.69  0.00
  WS02006245WS02006243    1.00   0.00  0.00  0.00  0.41  0.00  0.00  0.59  0.00  0.00
  WS02006247WS02006245    1.00   0.00  0.00  0.00  0.98  0.00  0.00  0.01  0.00  0.00
  WS02006248WS02006247    1.00   0.00  0.00  0.00  0.99  0.00  0.00  0.01  0.13  0.00
  WS02006249WS02006248    1.00   0.00  0.00  0.00  0.31  0.00  0.69  0.00  0.00  0.00
  WS02006251WS02006249    1.00   0.00  0.00  0.00  1.00  0.00  0.00  0.00  0.69  0.00
  WS02006252WS02006251    1.00   0.00  0.74  0.00  0.00  0.00  0.26  0.00  0.01  0.00
  WS02006256WS02006235    1.00   0.00  0.00  0.00  1.00  0.00  0.00  0.00  0.00  0.00
  WSF200WS02003060        1.00   0.00  0.02  0.00  0.98  0.00  0.00  0.00  0.73  0.00
  YS02001580YS02001583    1.00   0.29  0.56  0.00  0.16  0.00  0.00  0.00  0.65  0.00
  YS02001583YS02001586    1.00   0.49  0.30  0.00  0.21  0.00  0.00  0.00  0.65  0.00
  YS02001586YS02001590    1.00   0.13  0.00  0.00  0.39  0.04  0.00  0.45  0.36  0.00
  YS02001590YS02001593    1.00   0.13  0.01  0.00  0.08  0.00  0.78  0.00  0.00  0.00
  YS02001593YS02001596    1.00   0.14  0.00  0.00  0.45  0.03  0.00  0.37  0.40  0.00
  YS02001596YS02001600    1.00   0.14  0.00  0.00  0.76  0.01  0.00  0.09  0.04  0.00
  YS02001600YS02001601    1.00   0.13  0.01  0.00  0.86  0.00  0.00  0.00  0.06  0.00
  YS02001601YS02001602    1.00   0.13  0.01  0.00  0.86  0.00  0.00  0.00  0.00  0.00
  YS02001602YS02001605    1.00   0.14  0.00  0.00  0.86  0.00  0.00  0.00  0.00  0.00
  YS02001605YS02001607    1.00   0.14  0.00  0.00  0.86  0.00  0.00  0.00  0.00  0.00
  YS02001607YS02001610    1.00   0.13  0.01  0.00  0.86  0.00  0.00  0.00  0.02  0.00
  YS02001610YS02001613    1.00   0.13  0.00  0.00  0.87  0.00  0.00  0.00  0.01  0.00
  YS02001613YS02001616    1.00   0.13  0.00  0.00  0.87  0.00  0.00  0.00  0.01  0.00
  YS02001616YS02001619    1.00   0.13  0.00  0.00  0.87  0.00  0.00  0.00  0.00  0.00
  YS02001619YS02001622    1.00   0.13  0.00  0.00  0.87  0.00  0.00  0.00  0.00  0.00
  YS02001622YS02001625    1.00   0.13  0.00  0.00  0.87  0.00  0.00  0.00  0.06  0.00
  YS02001625YS02001629    1.00   0.13  0.06  0.00  0.74  0.00  0.07  0.00  0.00  0.00
  YS02001629YS02163301    1.00   0.16  0.01  0.00  0.83  0.00  0.00  0.00  0.00  0.00
  YS02001633YS02163601    1.00   0.00  0.01  0.00  0.99  0.00  0.00  0.00  0.15  0.00
  YS02001641YS02001644    1.00   0.00  0.01  0.00  0.99  0.00  0.00  0.00  0.00  0.00
  YS02001644YS02001647    1.00   0.00  0.19  0.00  0.81  0.00  0.00  0.00  0.00  0.00
  YS02001647YS02001649    1.00   0.00  0.19  0.00  0.76  0.06  0.00  0.00  0.02  0.00
  YS02001649YS02001757    1.00   0.00  0.00  0.00  0.93  0.06  0.00  0.00  0.20  0.00
  YS02001652YS02001649    1.00   0.00  0.00  0.00  0.96  0.04  0.00  0.00  0.21  0.00
  YS02001655YS02001652    1.00   0.00  0.00  0.00  0.73  0.01  0.00  0.26  0.02  0.00
  YS02001658YS02001655    1.00   0.00  0.14  0.00  0.71  0.14  0.00  0.00  0.10  0.00
  YS02001661YS02001658    1.00   0.14  0.00  0.00  0.70  0.15  0.00  0.00  0.09  0.00
  YS02001664YS02001661    1.00   0.13  0.00  0.00  0.82  0.06  0.00  0.00  0.86  0.00
  YS02001745YS02001748    1.00   0.00  0.00  0.00  0.70  0.00  0.00  0.30  0.06  0.00
  YS02001748YS02001751    1.00   0.00  0.00  0.00  0.86  0.14  0.00  0.00  0.13  0.00
  YS02001751YS02001754    1.00   0.00  0.00  0.00  0.72  0.00  0.00  0.28  0.01  0.00
  YS02001754YS02001757    1.00   0.00  0.00  0.00  1.00  0.00  0.00  0.00  0.27  0.00
  YS02001757CaochengTiaoxuchi    1.00   0.00  0.00  0.00  1.00  0.00  0.00  0.00  0.26  0.00
  YS02001759YS02001757    1.00   0.00  0.00  0.00  1.00  0.00  0.00  0.00  0.09  0.00
  YS02001762YS02001759    1.00   0.00  0.00  0.00  1.00  0.00  0.00  0.00  0.05  0.00
  YS02001765YS02001762    1.00   0.00  0.00  0.00  1.00  0.00  0.00  0.00  0.18  0.00
  YS02001767YS02001765    1.00   0.00  0.00  0.00  1.00  0.00  0.00  0.00  0.00  0.00
  YS02001770YS02001767    1.00   0.00  0.00  0.00  1.00  0.00  0.00  0.00  0.00  0.00
  YS02001774YS02001770    1.00   0.00  0.13  0.00  0.86  0.00  0.00  0.00  0.04  0.00
  YS02001779YS02001774    1.00   0.00  0.00  0.00  1.00  0.00  0.00  0.00  0.21  0.00
  YS02001783YS02001784    1.00   0.00  0.20  0.00  0.80  0.00  0.00  0.00  0.00  0.00
  YS02001784YS02001785    1.00   0.00  0.00  0.00  1.00  0.00  0.00  0.00  0.19  0.00
  YS02001786YS02001788    1.00   0.00  0.00  0.00  0.93  0.07  0.00  0.00  0.00  0.00
  YS02001788YS02001790    1.00   0.00  0.00  0.00  0.93  0.07  0.00  0.00  0.22  0.00
  YS02001790YS02001791    1.00   0.00  0.00  0.00  0.74  0.26  0.00  0.00  0.04  0.00
  YS02001791YS02001793    1.00   0.00  0.00  0.00  0.73  0.27  0.00  0.00  0.01  0.00
  YS02001793JiankangQianchi    1.00   0.00  0.00  0.00  0.94  0.06  0.00  0.00  0.24  0.00
  YS02001882YS02001884    1.00   0.16  0.01  0.00  0.83  0.00  0.00  0.00  0.00  0.00
  YS02001884YS02001887    1.00   0.06  0.05  0.00  0.89  0.00  0.00  0.00  0.00  0.00
  YS02001887YS02001890    1.00   0.00  0.00  0.00  0.97  0.00  0.03  0.00  0.00  0.00
  YS02001890YS02001895    1.00   0.00  0.17  0.00  0.82  0.00  0.00  0.00  0.00  0.00
  YS02001895YS02001898    1.00   0.18  0.00  0.00  0.80  0.00  0.02  0.00  0.00  0.00
  YS02001898YS02001901    1.00   0.18  0.00  0.00  0.82  0.00  0.00  0.00  0.02  0.00
  YS02001901YS02001904    1.00   0.18  0.00  0.00  0.82  0.00  0.00  0.00  0.00  0.00
  YS02001904YS02001907    1.00   0.00  0.17  0.00  0.82  0.00  0.00  0.00  0.00  0.00
  YS02001907YS02006553    1.00   0.00  0.02  0.00  0.98  0.00  0.00  0.00  0.00  0.00
  YS02001910YS02001907    1.00   0.00  0.00  0.00  0.97  0.00  0.00  0.03  0.12  0.00
  YS02001915YS02001910    1.00   0.00  0.00  0.00  0.96  0.04  0.00  0.00  0.17  0.00
  YS02001918YS02001915    1.00   0.00  0.01  0.00  0.98  0.02  0.00  0.00  0.79  0.00
  YS02001920YS02001918    1.00   0.00  0.01  0.00  0.99  0.00  0.00  0.00  0.00  0.00
  YS02001923YS02001920    1.00   0.00  0.00  0.00  1.00  0.00  0.00  0.00  0.95  0.00
  YS02001926YS02001923    1.00   0.00  0.07  0.00  0.04  0.00  0.89  0.00  0.00  0.00
  YS02001929YS02001926    1.00   0.00  0.13  0.00  0.87  0.00  0.00  0.00  0.84  0.00
  YS02006553YS02006556    1.00   0.01  0.00  0.00  0.99  0.00  0.00  0.00  0.03  0.00
  YS02006556YS02006558    1.00   0.00  0.00  0.00  1.00  0.00  0.00  0.00  0.00  0.00
  YS02006558YS02006561    1.00   0.19  0.00  0.00  0.05  0.75  0.00  0.00  0.18  0.00
  YS02006561YS02001783    1.00   0.19  0.00  0.00  0.72  0.08  0.00  0.00  0.72  0.00
  YS02163301YS02001633    1.00   0.00  0.16  0.00  0.84  0.00  0.00  0.00  0.00  0.00
  YS02163601YS02164001    1.00   0.00  0.08  0.00  0.92  0.00  0.00  0.00  0.00  0.00
  YS02164001YS02001641    1.00   0.01  0.07  0.00  0.92  0.00  0.00  0.00  0.06  0.00
  
  
  *************************
  Conduit Surcharge Summary
  *************************
  
  ----------------------------------------------------------------------------
                                                           Hours        Hours 
                         --------- Hours Full --------   Above Full   Capacity
  Conduit                Both Ends  Upstream  Dnstream   Normal Flow   Limited
  ----------------------------------------------------------------------------
  WS02003072WS02003073        0.01      0.01      0.01      2.22         0.01
  WS02004404WS02004405        0.01      0.01      0.01      2.07         0.01
  WS02006109WS02006110        0.01      0.01      1.35      0.01         0.01
  WS02006110WS02006113        0.01      0.01      1.28      0.01         0.01
  WS02006111WS02006112        0.01      0.01      1.49      0.01         0.01
  WS02006228WS02006109        1.22      1.35      1.22      1.77         1.22
  WS02006229WS02006228        1.21      1.24      1.21      1.58         1.21
  WS02006230WS02006229        1.44      1.51      1.44      2.52         1.44
  WS02006231WS02006230        0.01      0.01      0.01      2.33         0.01
  WS02006232WS02006231        0.01      0.01      1.35      0.01         0.01
  WS02006234WS02006232        1.19      1.19      1.35      0.01         0.01
  WS02006235WS02006234        0.01      0.01      1.24      2.24         0.01
  WS02006238WS02006235        1.26      1.26      1.37      0.01         0.01
  WS02006239WS02006238        1.29      1.35      1.29      1.65         1.29
  WS02006240WS02006239        1.25      1.28      1.25      1.66         1.25
  WS02006242WS02006240        1.26      1.26      1.46      1.82         0.01
  WS02006243WS02006242        1.31      1.31      1.41      0.01         0.01
  WS02006245WS02006243        1.29      1.31      1.29      1.77         1.29
  WS02006247WS02006245        1.29      1.35      1.29      2.04         1.29
  WS02006248WS02006247        1.30      1.30      1.33      0.01         0.01
  WS02006249WS02006248        1.28      1.28      1.32      2.01         0.01
  WS02006251WS02006249        1.31      1.33      1.32      1.88         1.31
  WS02006252WS02006251        1.92      1.92      1.93      1.93         0.01
  WS02006256WS02006235        2.28      2.28      3.14      0.02         0.01
  YS02001580YS02001583        0.33      0.33      0.37      0.01         0.01
  YS02001583YS02001586        0.34      0.34      0.46      0.01         0.01
  YS02001586YS02001590        0.46      0.46      0.52      0.01         0.01
  YS02001590YS02001593        0.53      0.53      0.54      0.53         0.01
  YS02001593YS02001596        0.53      0.53      0.63      0.01         0.01
  YS02001596YS02001600        0.69      0.69      0.84      0.01         0.01
  YS02001600YS02001601        0.92      0.92      5.98      0.01         0.01
  YS02001601YS02001602        5.92      5.92      6.00      0.73         0.01
  YS02001602YS02001605        5.89      5.89      5.92      1.93         0.01
  YS02001605YS02001607        5.86      5.89      5.86      0.98         0.85
  YS02001607YS02001610        0.56      0.56      0.60      0.01         0.01
  YS02001610YS02001613        0.56      0.56      0.60      0.01         0.01
  YS02001613YS02001616        0.51      0.51      0.56      0.01         0.01
  YS02001616YS02001619        0.49      0.49      0.51      0.01         0.01
  YS02001619YS02001622        0.49      0.49      0.50      0.46         0.39
  YS02001622YS02001625        0.50      0.50      0.89      0.01         0.01
  YS02001625YS02001629        0.46      0.46      0.89      0.01         0.01
  YS02001629YS02163301        5.18      5.18      5.65      0.06         0.11
  YS02001633YS02163601        5.74      5.74      5.75      0.24         0.24
  YS02001641YS02001644        5.70      5.71      5.70      1.06         0.75
  YS02001644YS02001647        0.71      0.71      5.70      0.03         0.01
  YS02001647YS02001649        0.71      0.71      5.64      0.01         0.01
  YS02001649YS02001757        5.64      5.64      5.64      0.08         0.06
  YS02001652YS02001649        0.72      0.72      5.64      0.01         0.01
  YS02001655YS02001652        0.20      0.20      0.53      0.01         0.01
  YS02001658YS02001655        0.07      0.07      0.20      0.01         0.01
  YS02001661YS02001658        0.01      0.01      0.07      0.01         0.01
  YS02001664YS02001661        0.01      0.01      0.01      0.01         0.01
  YS02001745YS02001748        0.01      0.01      0.02      0.01         0.01
  YS02001748YS02001751        0.05      0.05      0.10      0.01         0.01
  YS02001751YS02001754        0.10      0.10      0.28      0.01         0.01
  YS02001754YS02001757        0.53      0.53      5.64      0.01         0.01
  YS02001757CaochengTiaoxuchi        5.64      5.64      5.64      0.21         0.17
  YS02001759YS02001757        5.63      5.63      5.64      0.01         0.01
  YS02001762YS02001759        5.63      5.63      5.63      0.01         0.02
  YS02001765YS02001762        5.63      5.63      5.63      0.01         0.01
  YS02001767YS02001765        5.63      5.63      5.63      0.01         0.02
  YS02001770YS02001767        5.63      5.63      5.63      0.30         0.26
  YS02001774YS02001770        5.46      5.46      5.63      0.01         0.01
  YS02001779YS02001774        0.26      0.26      5.63      0.01         0.01
  YS02001783YS02001784        0.52      0.52      0.53      0.39         0.40
  YS02001784YS02001785        0.53      0.53      0.53      0.60         0.53
  YS02001786YS02001788        0.52      0.53      0.52      0.54         0.52
  YS02001788YS02001790        0.52      0.52      5.79      0.01         0.01
  YS02001790YS02001791        5.79      5.79      5.80      0.22         0.21
  YS02001791YS02001793        5.80      5.80      5.84      0.01         0.01
  YS02001793JiankangQianchi        5.83      5.83      6.14      0.01         0.01
  YS02001882YS02001884        0.31      0.31      0.32      0.01         0.01
  YS02001884YS02001887        0.33      0.33      0.34      0.01         0.01
  YS02001887YS02001890        0.35      0.35      0.36      0.01         0.01
  YS02001890YS02001895        0.30      0.30      0.38      0.01         0.01
  YS02001895YS02001898        0.29      0.29      0.30      0.01         0.01
  YS02001898YS02001901        0.30      0.30      0.33      0.01         0.01
  YS02001901YS02001904        0.32      0.32      0.33      0.01         0.01
  YS02001904YS02001907        0.32      0.32      0.53      0.01         0.01
  YS02001907YS02006553        0.63      0.63      0.67      0.01         0.01
  YS02001910YS02001907        0.37      0.37      0.52      0.01         0.01
  YS02001915YS02001910        0.30      0.30      0.37      0.01         0.01
  YS02001918YS02001915        0.23      0.23      0.30      0.01         0.01
  YS02001920YS02001918        0.23      0.23      0.24      0.01         0.01
  YS02001923YS02001920        0.19      0.19      0.24      0.01         0.01
  YS02001926YS02001923        0.01      0.01      0.01      0.01         0.01
  YS02001929YS02001926        0.01      0.01      0.01      0.01         0.01
  YS02006553YS02006556        0.45      0.45      0.53      0.01         0.01
  YS02006556YS02006558        0.48      0.48      0.54      0.01         0.01
  YS02006558YS02006561        0.33      0.44      0.33      0.59         0.33
  YS02006561YS02001783        0.26      0.26      0.52      0.01         0.01
  YS02163301YS02001633        5.65      5.65      5.75      0.01         0.01
  YS02163601YS02164001        5.72      5.72      5.75      0.08         0.01
  YS02164001YS02001641        5.71      5.72      5.71      0.47         0.41
  
  
  ***************
  Pumping Summary
  ***************
  
  ---------------------------------------------------------------------------------------------------------
                                                  Min       Avg       Max     Total     Power    % Time Off
                        Percent   Number of      Flow      Flow      Flow    Volume     Usage    Pump Curve
  Pump                 Utilized   Start-Ups       LPS       LPS       LPS  10^6 ltr     Kw-hr    Low   High
  ---------------------------------------------------------------------------------------------------------
  CC-R1                    1.06           1      0.00    683.00    683.00     0.208      3.51    0.0  100.0
  CC-R2                    1.06           1      0.00    683.00    683.00     0.208      3.51    0.0  100.0
  CC-S1                   24.86           5      0.00    200.00    200.00     1.432      7.46    0.0   36.6
  CC-S2                   25.10           6      0.00    200.00    200.00     1.446      7.49    0.0   37.2
  JK-R1                    0.97           2      0.00    347.46   1000.00     0.078      0.47    0.0    0.0
  JK-R2                    0.97           2      0.00    347.46   1000.00     0.078      0.47    0.0    0.0
  JK-S                     0.97           2      0.00    104.30    300.00     0.023      0.44    0.0    0.0
  XR-1                   100.00           1      0.00     95.00     95.00     2.736     68.18    0.0    0.0
  XR-2                   100.00           1      0.00     95.00     95.00     2.736     68.18    0.0    0.0
  XR-3                   100.00           1      0.00     95.00     95.00     2.736     68.18    0.0    0.0
  XR-4                   100.00           1      0.00     95.00     95.00     2.736     68.18    0.0    0.0
  

  Analysis begun on:  Wed Nov  5 16:28:25 2025
  Analysis ended on:  Wed Nov  5 16:28:28 2025
  Total elapsed time: 00:00:03