
  EPA STORM WATER MANAGEMENT MODEL - VERSION 5.2 (Build 5.2.4)
  PYSWMM TOOLKIT API - VERSION v1.0 (2023-11-27)
  ------------------------------------------------------------

  WARNING 04: minimum elevation drop used for Conduit WS02004404WS02004405
  WARNING 03: negative offset ignored for Link YS02001904YS02001907
  
  ****************
  Analysis Options
  ****************
  Flow Units ............... LPS
  Process Models:
    Rainfall/Runoff ........ YES
    RDII ................... NO
    Snowmelt ............... NO
    Groundwater ............ NO
    Flow Routing ........... YES
    Ponding Allowed ........ NO
    Water Quality .......... NO
  Infiltration Method ...... HORTON
  Flow Routing Method ...... DYNWAVE
  Surcharge Method ......... EXTRAN
  Starting Date ............ 08/28/2015 08:00:00
  Ending Date .............. 08/28/2015 16:00:00
  Antecedent Dry Days ...... 8.0
  Report Time Step ......... 00:01:00
  Wet Time Step ............ 00:01:00
  Dry Time Step ............ 00:01:00
  Routing Time Step ........ 30.00 sec
  Variable Time Step ....... YES
  Maximum Trials ........... 8
  Number of Threads ........ 4
  Head Tolerance ........... 0.001500 m
  
  
  **************************        Volume         Depth
  Runoff Quantity Continuity     hectare-m            mm
  **************************     ---------       -------
  Initial LID Storage ......         0.049         1.488
  Total Precipitation ......         1.652        49.803
  Evaporation Loss .........         0.000         0.000
  Infiltration Loss ........         0.074         2.237
  Surface Runoff ...........         1.204        36.303
  Final Storage ............         0.423        12.767
  Continuity Error (%) .....        -0.033
  
  
  **************************        Volume        Volume
  Flow Routing Continuity        hectare-m      10^6 ltr
  **************************     ---------     ---------
  Dry Weather Inflow .......         0.602         6.020
  Wet Weather Inflow .......         1.204        12.043
  Groundwater Inflow .......         0.000         0.000
  RDII Inflow ..............         0.000         0.000
  External Inflow ..........         0.105         1.045
  External Outflow .........         1.507        15.073
  Flooding Loss ............         0.375         3.754
  Evaporation Loss .........         0.000         0.000
  Exfiltration Loss ........         0.000         0.000
  Initial Stored Volume ....         0.303         3.031
  Final Stored Volume ......         0.789         7.887
  Continuity Error (%) .....       -20.664
  
  
  *************************
  Highest Continuity Errors
  *************************
  Node YS02001774 (31.18%)
  Node YS02001583 (-13.59%)
  Node WS02006256 (-5.71%)
  Node YS02001884 (4.94%)
  Node YS02001754 (4.26%)
  
  
  ***************************
  Time-Step Critical Elements
  ***************************
  Link WS02001212WS02001213 (29.52%)
  Link WS02006235WS02006234 (20.36%)
  Link WS02006238WS02006235 (17.57%)
  Link WS02006252WS02006251 (9.39%)
  Link YS02006556YS02006558 (5.70%)
  
  
  ********************************
  Highest Flow Instability Indexes
  ********************************
  Link WS02006113WS02006111 (40)
  Link WS02006238WS02006235 (31)
  Link WS02006111WS02006112 (29)
  Link WS02006256WS02006235 (28)
  Link WS02006252WS02006251 (24)
  
  
  *********************************
  Most Frequent Nonconverging Nodes
  *********************************
  Node CC-1 (11.48%)
  Node CC-2 (11.48%)
  Node JK-1 (11.48%)
  Node JK-2 (11.48%)
  Node WSC (11.48%)
  
  
  *************************
  Routing Time Step Summary
  *************************
  Minimum Time Step           :     0.06 sec
  Average Time Step           :     3.48 sec
  Maximum Time Step           :     6.46 sec
  % of Time in Steady State   :     0.00
  Average Iterations per Step :     3.29
  % of Steps Not Converging   :    11.48
  Time Step Frequencies       :
     30.000 - 13.228 sec      :     0.00 %
     13.228 -  5.833 sec      :    28.54 %
      5.833 -  2.572 sec      :    38.45 %
      2.572 -  1.134 sec      :    17.51 %
      1.134 -  0.500 sec      :    15.50 %
  
  
  ***************************
  Subcatchment Runoff Summary
  ***************************
  
  ------------------------------------------------------------------------------------------------------------------------------
                            Total      Total      Total      Total     Imperv       Perv      Total       Total     Peak  Runoff
                           Precip      Runon       Evap      Infil     Runoff     Runoff     Runoff      Runoff   Runoff   Coeff
  Subcatchment                 mm         mm         mm         mm         mm         mm         mm    10^6 ltr      LPS
  ------------------------------------------------------------------------------------------------------------------------------
  sub60                     49.80       0.00       0.00       1.35      32.90       3.26      36.16        0.48   309.49   0.726
  sub61                     49.80       0.00       0.00       2.07      32.87       4.85      37.72        0.69   447.00   0.757
  sub62                     49.80       0.00       0.00       0.92      35.04       2.21      37.25        1.02   611.09   0.748
  sub63                     49.80       0.00       0.00       3.77      28.15       8.06      36.21        0.82   488.23   0.727
  sub64                     49.80       0.00       0.00       1.81      32.05       4.01      36.06        0.87   488.57   0.724
  sub65                     49.80       0.00       0.00       1.66      34.59       3.66      38.25        1.05   566.90   0.768
  sub66                     49.80       0.00       0.00       4.34      27.21       7.11      34.32        1.60   708.20   0.689
  sub67                     49.80       0.00       0.00       0.92      35.92       2.29      38.22        0.71   486.00   0.767
  sub68                     49.80       0.00       0.00       1.59      31.73       3.72      35.45        0.98   606.47   0.712
  sub69                     49.80       0.00       0.00       1.43      33.47       4.49      37.96        1.41   739.78   0.762
  sub70                     49.80       0.00       0.00       4.72      26.80       9.14      35.94        1.04   411.11   0.722
  sub71                     49.80       0.00       0.00       0.85      31.82       2.00      33.83        0.88   499.34   0.679
  sub72                     49.80       0.00       0.00       0.81      34.37       1.86      36.23        0.50   253.27   0.727
  

  ***********************
  LID Performance Summary
  ***********************

  --------------------------------------------------------------------------------------------------------------------
                                         Total      Evap     Infil   Surface    Drain    Initial     Final  Continuity
                                        Inflow      Loss      Loss   Outflow   Outflow   Storage   Storage       Error
  Subcatchment      LID Control             mm        mm        mm        mm        mm        mm        mm           %
  --------------------------------------------------------------------------------------------------------------------
  sub60             GreenRoof            49.80      0.00      0.00      0.00      0.00      7.05     56.89       -0.07
  sub61             GreenRoof            49.80      0.00      0.00      0.00      0.00      7.05     56.89       -0.07
  sub62             GreenRoof            49.80      0.00      0.00      0.00      0.00      7.05     56.89       -0.07
  sub63             GreenRoof            49.80      0.00      0.00      0.00      0.00      7.05     56.89       -0.07
  sub64             GreenRoof            49.80      0.00      0.00      0.00      0.00      7.05     56.89       -0.07
  sub65             GreenRoof            49.80      0.00      0.00      0.00      0.00      7.05     56.89       -0.07
  sub66             GreenRoof            49.80      0.00      0.00      0.00      0.00      7.05     56.89       -0.07
  sub67             GreenRoof            49.80      0.00      0.00      0.00      0.00      7.05     56.89       -0.07
  sub68             GreenRoof            49.80      0.00      0.00      0.00      0.00      7.05     56.89       -0.07
  sub69             GreenRoof            49.80      0.00      0.00      0.00      0.00      7.05     56.89       -0.07
  sub70             GreenRoof            49.80      0.00      0.00      0.00      0.00      7.05     56.89       -0.07
  sub71             GreenRoof            49.80      0.00      0.00      0.00      0.00      7.05     56.89       -0.07
  sub72             GreenRoof            49.80      0.00      0.00      0.00      0.00      7.05     56.89       -0.07
  
  ******************
  Node Depth Summary
  ******************
  
  ---------------------------------------------------------------------------------
                                 Average  Maximum  Maximum  Time of Max    Reported
                                   Depth    Depth      HGL   Occurrence   Max Depth
  Node                 Type       Meters   Meters   Meters  days hr:min      Meters
  ---------------------------------------------------------------------------------
  WS02001211           JUNCTION     0.76     0.78     5.62     0  02:24        0.78
  WS02001212           JUNCTION     0.46     0.49     5.55     0  02:23        0.49
  WS02001213           JUNCTION     0.68     0.73     5.49     0  02:23        0.73
  WS02003059           JUNCTION     0.72     0.78     5.47     0  02:22        0.78
  WS02003060           JUNCTION     0.38     0.47     5.41     0  02:21        0.47
  WS02003066           JUNCTION     0.15     0.27     5.82     0  02:21        0.27
  WS02003067           JUNCTION     0.42     0.65     5.97     0  02:21        0.65
  WS02003069           JUNCTION     0.42     0.54     5.12     0  02:22        0.54
  WS02003072           JUNCTION     0.48     0.60     4.97     0  02:23        0.60
  WS02003073           JUNCTION     0.29     0.37     4.43     0  02:23        0.37
  WS02004138           JUNCTION     0.19     0.20     7.45     0  00:00        0.19
  WS02004139           JUNCTION     0.71     0.73     5.64     0  02:24        0.73
  WS02004401           JUNCTION     0.50     0.75     6.75     0  03:22        0.75
  WS02004402           JUNCTION     0.54     0.78     6.74     0  03:22        0.78
  WS02004403           JUNCTION     0.56     0.80     6.73     0  03:23        0.80
  WS02004404           JUNCTION     0.64     0.88     6.73     0  03:23        0.88
  WS02004405           JUNCTION     0.63     0.88     6.73     0  03:23        0.88
  WS02004406           JUNCTION     0.65     0.88     6.71     0  03:23        0.88
  WS02004407           JUNCTION     0.13     0.26     6.57     0  03:23        0.26
  WS02004409           JUNCTION     0.29     0.58     6.35     0  03:24        0.57
  WS02004410           JUNCTION     0.32     0.59     6.31     0  02:20        0.59
  WS02004411           JUNCTION     0.34     0.61     6.29     0  02:26        0.61
  WS02004412           JUNCTION     0.37     0.62     6.26     0  02:33        0.62
  WS02004413           JUNCTION     0.52     0.79     6.26     0  02:21        0.79
  WS02006109           JUNCTION     0.56     0.84     7.45     0  01:58        0.84
  WS02006110           JUNCTION     0.57     0.82     7.41     0  02:23        0.82
  WS02006111           JUNCTION     0.14     0.25     6.96     0  02:23        0.25
  WS02006112           JUNCTION     0.65     0.93     6.82     0  02:23        0.93
  WS02006113           JUNCTION     0.21     0.39     7.29     0  02:23        0.39
  WS02006115           JUNCTION     0.39     0.65     6.78     0  02:23        0.65
  WS02006116           JUNCTION     0.47     0.73     6.77     0  03:22        0.73
  WS02006228           JUNCTION     0.54     0.85     7.50     0  01:58        0.85
  WS02006229           JUNCTION     0.51     0.83     7.52     0  01:58        0.83
  WS02006230           JUNCTION     0.50     0.86     7.60     0  01:57        0.86
  WS02006231           JUNCTION     0.30     0.60     7.72     0  01:57        0.60
  WS02006232           JUNCTION     0.41     0.75     7.79     0  01:57        0.75
  WS02006234           JUNCTION     0.33     0.71     7.87     0  01:57        0.71
  WS02006235           JUNCTION     0.37     0.76     7.93     0  02:03        0.76
  WS02006238           JUNCTION     0.39     0.81     7.95     0  02:14        0.80
  WS02006239           JUNCTION     0.37     0.81     8.01     0  01:58        0.80
  WS02006240           JUNCTION     0.36     0.79     8.08     0  01:57        0.79
  WS02006242           JUNCTION     0.42     0.90     8.17     0  01:52        0.90
  WS02006243           JUNCTION     0.36     0.84     8.26     0  02:50        0.84
  WS02006245           JUNCTION     0.37     0.86     8.34     0  02:35        0.85
  WS02006247           JUNCTION     0.39     0.89     8.39     0  02:44        0.89
  WS02006248           JUNCTION     0.37     0.86     8.44     0  02:38        0.85
  WS02006249           JUNCTION     0.40     0.90     8.50     0  01:55        0.90
  WS02006251           JUNCTION     0.40     0.91     8.58     0  01:50        0.91
  WS02006252           JUNCTION     0.28     1.50     9.74     0  00:00        0.59
  WS02006256           JUNCTION     0.60     2.35     9.28     0  00:00        2.35
  WSF200               JUNCTION     0.12     0.25     5.48     0  02:21        0.25
  YS02001580           JUNCTION     0.07     1.05     9.59     0  01:48        0.77
  YS02001583           JUNCTION     0.10     1.14     9.64     0  01:48        0.81
  YS02001586           JUNCTION     0.17     1.13     9.30     0  01:48        1.13
  YS02001590           JUNCTION     0.26     1.40     9.26     0  01:46        1.37
  YS02001593           JUNCTION     0.20     1.45     9.31     0  01:46        1.29
  YS02001596           JUNCTION     0.40     1.70     9.12     0  01:48        1.64
  YS02001600           JUNCTION     0.63     1.87     9.00     0  01:48        1.86
  YS02001601           JUNCTION     0.88     2.06     8.90     0  01:46        2.06
  YS02001602           JUNCTION     0.80     1.87     8.77     0  01:48        1.87
  YS02001605           JUNCTION     0.77     1.78     8.68     0  01:51        1.78
  YS02001607           JUNCTION     0.77     1.65     8.50     0  01:55        1.65
  YS02001610           JUNCTION     0.81     1.68     8.48     0  01:48        1.68
  YS02001613           JUNCTION     0.77     1.66     8.50     0  01:48        1.65
  YS02001616           JUNCTION     0.71     1.61     8.52     0  01:48        1.58
  YS02001619           JUNCTION     0.69     1.61     8.54     0  01:48        1.58
  YS02001622           JUNCTION     0.70     1.62     8.52     0  01:48        1.56
  YS02001625           JUNCTION     0.96     1.78     8.38     0  01:48        1.78
  YS02001629           JUNCTION     0.98     1.85     8.40     0  01:48        1.85
  YS02001633           JUNCTION     1.06     2.00     8.45     0  01:50        1.93
  YS02001641           JUNCTION     1.04     1.89     8.33     0  01:52        1.82
  YS02001644           JUNCTION     1.04     1.87     8.30     0  01:49        1.79
  YS02001647           JUNCTION     0.86     1.62     8.23     0  01:52        1.50
  YS02001649           JUNCTION     1.02     1.76     8.15     0  01:52        1.61
  YS02001652           JUNCTION     0.85     1.64     8.23     0  01:52        1.43
  YS02001655           JUNCTION     0.65     1.48     8.33     0  01:52        1.19
  YS02001658           JUNCTION     0.42     1.35     8.50     0  01:52        0.93
  YS02001661           JUNCTION     0.22     0.70     8.11     0  01:52        0.64
  YS02001664           JUNCTION     0.05     0.26     8.19     0  01:51        0.26
  YS02001745           JUNCTION     0.12     0.40     7.92     0  01:52        0.29
  YS02001748           JUNCTION     0.45     0.83     7.91     0  01:51        0.81
  YS02001751           JUNCTION     0.61     1.24     8.12     0  01:51        0.96
  YS02001754           JUNCTION     0.82     1.36     7.97     0  01:51        1.23
  YS02001757           JUNCTION     1.11     1.66     7.92     0  01:52        1.58
  YS02001759           JUNCTION     1.02     1.60     7.96     0  01:52        1.54
  YS02001762           JUNCTION     0.99     1.60     8.00     0  01:51        1.53
  YS02001765           JUNCTION     0.95     1.61     8.06     0  01:50        1.51
  YS02001767           JUNCTION     0.93     1.62     8.11     0  01:50        1.51
  YS02001770           JUNCTION     0.93     1.76     8.25     0  01:50        1.57
  YS02001774           JUNCTION     0.99     1.88     8.30     0  01:50        1.65
  YS02001779           JUNCTION     0.76     1.68     8.37     0  01:50        1.40
  YS02001783           JUNCTION     0.47     1.83     7.97     0  01:50        1.63
  YS02001784           JUNCTION     0.52     1.82     7.89     0  01:50        1.58
  YS02001786           JUNCTION     0.53     1.78     7.81     0  01:50        1.41
  YS02001788           JUNCTION     0.54     1.89     7.86     0  01:50        1.25
  YS02001790           JUNCTION     0.79     1.76     7.41     0  01:50        1.38
  YS02001791           JUNCTION     0.90     1.57     7.04     0  01:50        1.31
  YS02001793           JUNCTION     1.37     1.93     6.76     0  01:50        1.83
  YS02001882           JUNCTION     0.28     1.82     8.53     0  01:48        1.63
  YS02001884           JUNCTION     0.36     1.84     8.46     0  01:48        1.73
  YS02001887           JUNCTION     0.44     1.86     8.40     0  01:49        1.80
  YS02001890           JUNCTION     0.47     1.81     8.32     0  01:49        1.81
  YS02001895           JUNCTION     0.25     1.60     8.34     0  01:48        1.56
  YS02001898           JUNCTION     0.25     1.70     8.44     0  01:49        1.70
  YS02001901           JUNCTION     0.36     1.67     8.28     0  01:51        1.66
  YS02001904           JUNCTION     0.34     1.64     8.27     0  01:51        1.63
  YS02001907           JUNCTION     0.66     1.96     8.25     0  01:50        1.96
  YS02001910           JUNCTION     0.46     1.98     8.49     0  01:50        1.96
  YS02001915           JUNCTION     0.27     1.93     8.64     0  01:50        1.92
  YS02001918           JUNCTION     0.14     1.81     8.88     0  01:50        1.81
  YS02001920           JUNCTION     0.22     2.14     9.15     0  01:50        1.76
  YS02001923           JUNCTION     0.10     2.03     9.29     0  01:50        1.48
  YS02001926           JUNCTION     0.13     1.90     9.35     0  01:50        1.26
  YS02001929           JUNCTION     0.07     1.78     9.47     0  01:50        1.18
  YS02006553           JUNCTION     0.66     2.05     8.34     0  01:50        2.00
  YS02006556           JUNCTION     0.63     2.12     8.44     0  01:50        2.02
  YS02006558           JUNCTION     0.68     2.20     8.46     0  01:50        2.08
  YS02006561           JUNCTION     0.15     1.36     8.02     0  01:50        1.22
  YS02163301           JUNCTION     1.00     1.91     8.43     0  01:48        1.88
  YS02163601           JUNCTION     1.10     1.99     8.39     0  01:50        1.93
  YS02164001           JUNCTION     1.03     1.90     8.36     0  01:50        1.83
  CC-1                 OUTFALL      0.00     0.00     0.00     0  00:00        0.00
  CC-2                 OUTFALL      0.00     0.00     0.00     0  00:00        0.00
  JK-1                 OUTFALL      0.00     0.00     0.00     0  00:00        0.00
  JK-2                 OUTFALL      0.00     0.00     0.00     0  00:00        0.00
  WSC                  OUTFALL      0.29     0.37     1.04     0  02:24        0.37
  CC-storage           STORAGE      1.72     2.17     7.67     0  07:29        2.17
  JK-storage           STORAGE      4.60     5.80     6.60     0  01:50        5.80
  XR-storage           STORAGE      0.28     5.00     3.00     0  00:00        4.91
  
  
  *******************
  Node Inflow Summary
  *******************
  
  -------------------------------------------------------------------------------------------------
                                  Maximum  Maximum                  Lateral       Total        Flow
                                  Lateral    Total  Time of Max      Inflow      Inflow     Balance
                                   Inflow   Inflow   Occurrence      Volume      Volume       Error
  Node                 Type           LPS      LPS  days hr:min    10^6 ltr    10^6 ltr     Percent
  -------------------------------------------------------------------------------------------------
  WS02001211           JUNCTION      7.35   389.13     0  03:33       0.212        11.1       0.348
  WS02001212           JUNCTION      0.00   390.85     0  03:36           0        11.1       0.208
  WS02001213           JUNCTION      0.00   392.60     0  03:35           0        11.1       0.239
  WS02003059           JUNCTION      0.00   395.65     0  03:35           0          11       0.329
  WS02003060           JUNCTION     16.53   816.05     0  02:21       0.476        14.5       0.154
  WS02003066           JUNCTION      0.00   411.87     0  02:21           0        3.08       0.063
  WS02003067           JUNCTION      0.00   411.86     0  02:21           0        3.09       0.171
  WS02003069           JUNCTION      0.32   816.36     0  02:22     0.00922        14.5       0.162
  WS02003072           JUNCTION      0.00   816.35     0  02:22           0        14.5       0.208
  WS02003073           JUNCTION      1.82   818.16     0  02:23      0.0524        14.5       0.223
  WS02004138           JUNCTION      0.00   380.00     0  00:00           0        10.9       0.059
  WS02004139           JUNCTION      0.32   395.52     0  00:00     0.00924        10.9       0.407
  WS02004401           JUNCTION      0.00   412.29     0  03:22           0        3.25       0.521
  WS02004402           JUNCTION      0.00   412.17     0  03:22           0        3.24       0.505
  WS02004403           JUNCTION      0.00   412.21     0  03:23           0        3.22       0.472
  WS02004404           JUNCTION      0.16   412.26     0  03:23     0.00467        3.21       0.368
  WS02004405           JUNCTION      0.04   412.32     0  03:23      0.0011         3.2       0.551
  WS02004406           JUNCTION      0.00   412.40     0  03:23           0        3.18       0.915
  WS02004407           JUNCTION      0.00   412.13     0  03:23           0        3.15       0.160
  WS02004409           JUNCTION      0.00   412.03     0  03:24           0        3.15       0.290
  WS02004410           JUNCTION      0.00   411.96     0  03:24           0        3.14       0.324
  WS02004411           JUNCTION      0.00   411.92     0  02:26           0        3.13       0.327
  WS02004412           JUNCTION      0.00   411.91     0  02:32           0        3.12       0.362
  WS02004413           JUNCTION      0.00   411.92     0  02:27           0        3.11       0.595
  WS02006109           JUNCTION      1.23   412.55     0  01:58      0.0354        3.34       0.428
  WS02006110           JUNCTION      0.00   412.07     0  01:58           0        3.33       0.437
  WS02006111           JUNCTION      0.00   423.61     0  01:49           0        3.31       0.106
  WS02006112           JUNCTION      0.00   413.81     0  02:23           0         3.3       0.772
  WS02006113           JUNCTION      0.00   411.97     0  02:23           0        3.31       0.196
  WS02006115           JUNCTION      0.00   412.64     0  02:23           0        3.28       0.440
  WS02006116           JUNCTION      0.00   412.29     0  03:22           0        3.26       0.360
  WS02006228           JUNCTION      0.00   412.53     0  01:58           0        3.31       0.246
  WS02006229           JUNCTION      0.00   411.16     0  01:58           0        3.32       0.282
  WS02006230           JUNCTION     10.28   410.63     0  01:57       0.296        3.33       0.289
  WS02006231           JUNCTION      0.00   400.41     0  01:57           0        3.04       0.111
  WS02006232           JUNCTION      0.00   400.37     0  01:57           0        3.06       0.591
  WS02006234           JUNCTION      0.00   401.45     0  01:57           0        3.06      -0.061
  WS02006235           JUNCTION      0.00   401.84     0  02:26           0        3.08       0.430
  WS02006238           JUNCTION      0.00   401.41     0  02:01           0        3.06      -0.253
  WS02006239           JUNCTION      0.00   401.08     0  01:54           0        3.05      -0.029
  WS02006240           JUNCTION      0.00   400.92     0  02:42           0        3.05       0.117
  WS02006242           JUNCTION      0.00   401.57     0  02:57           0        3.06       0.330
  WS02006243           JUNCTION      0.00   401.77     0  02:40           0        3.06       0.226
  WS02006245           JUNCTION      0.00   403.78     0  02:43           0        3.08       0.695
  WS02006247           JUNCTION      0.00   400.89     0  02:21           0        3.09       0.214
  WS02006248           JUNCTION      0.00   401.12     0  01:57           0         3.1       0.225
  WS02006249           JUNCTION      0.00   465.26     0  07:46           0        3.12       0.707
  WS02006251           JUNCTION      0.08   403.36     0  07:46     0.00222        3.12       0.164
  WS02006252           JUNCTION      0.00   400.00     0  00:00           0        3.12      -0.054
  WS02006256           JUNCTION      0.00   300.00     0  00:00           0      0.0243      -5.405
  WSF200               JUNCTION      0.00   411.87     0  02:21           0        3.08       0.040
  YS02001580           JUNCTION      0.00   171.71     0  01:47           0     0.00441      -2.507
  YS02001583           JUNCTION      0.00   253.33     0  01:48           0      0.0145     -11.965
  YS02001586           JUNCTION    411.11   411.11     0  01:53        1.04        1.05       0.169
  YS02001590           JUNCTION      0.00   318.08     0  02:00           0       0.985      -0.005
  YS02001593           JUNCTION      0.00   318.08     0  01:52           0       0.985       0.060
  YS02001596           JUNCTION      0.00   317.98     0  02:00           0       0.985       0.127
  YS02001600           JUNCTION      0.00   318.11     0  02:00           0       0.987       0.633
  YS02001601           JUNCTION    739.78  1057.37     0  01:51        1.41        2.39       0.371
  YS02001602           JUNCTION      0.00   569.92     0  01:47           0        1.81       0.512
  YS02001605           JUNCTION      0.00   569.60     0  01:47           0        1.73       0.804
  YS02001607           JUNCTION      0.00   569.81     0  01:47           0        1.72       1.094
  YS02001610           JUNCTION      0.00   542.40     0  01:47           0        1.71       1.191
  YS02001613           JUNCTION      0.00   544.42     0  01:47           0        1.56       1.335
  YS02001616           JUNCTION      0.00   546.39     0  01:47           0        1.55       1.156
  YS02001619           JUNCTION    708.20   975.33     0  01:47         1.6        3.14       0.546
  YS02001622           JUNCTION      0.00   949.34     0  01:48           0        3.12       0.772
  YS02001625           JUNCTION      0.00   929.34     0  01:48           0         3.1       1.439
  YS02001629           JUNCTION      0.00   920.54     0  01:48           0        2.88       0.647
  YS02001633           JUNCTION    567.10  1435.80     0  01:49        1.06         3.9       0.830
  YS02001641           JUNCTION      0.00  1435.14     0  01:49           0        3.83       0.562
  YS02001644           JUNCTION    488.61  1890.38     0  01:49       0.867        4.67       0.564
  YS02001647           JUNCTION      0.00  1891.39     0  01:49           0        4.63       0.600
  YS02001649           JUNCTION      0.00  2226.53     0  01:49           0         5.4       0.697
  YS02001652           JUNCTION      0.00   596.89     0  01:53           0        0.82       2.496
  YS02001655           JUNCTION      0.15   642.94     0  01:51     0.00443       0.862       1.638
  YS02001658           JUNCTION      0.00   717.97     0  01:52           0       0.867       1.125
  YS02001661           JUNCTION      0.00   488.18     0  01:51           0       0.831       0.323
  YS02001664           JUNCTION    488.23   488.23     0  01:51       0.822       0.822      -0.025
  YS02001745           JUNCTION    309.49   309.49     0  01:50       0.475       0.485       0.521
  YS02001748           JUNCTION      0.04   408.76     0  01:52      0.0013       0.533       1.699
  YS02001751           JUNCTION      0.01   481.76     0  01:52    0.000317       0.527       3.435
  YS02001754           JUNCTION      0.26   380.97     0  01:52     0.00749       0.485       4.451
  YS02001757           JUNCTION      0.00  3173.80     0  01:53           0        7.36       1.323
  YS02001759           JUNCTION    447.04  1125.00     0  01:50       0.693        1.58       1.477
  YS02001762           JUNCTION      0.00   674.09     0  01:50           0       0.909       2.391
  YS02001765           JUNCTION      0.00   665.61     0  01:50           0       0.933       2.677
  YS02001767           JUNCTION      0.54   658.74     0  01:50      0.0154       0.969       3.786
  YS02001770           JUNCTION    611.25   645.91     0  01:51        1.03        1.05       3.099
  YS02001774           JUNCTION      0.00   386.33     0  01:50           0      0.0807      45.299
  YS02001779           JUNCTION      0.01   395.06     0  01:50    0.000144      0.0342      65.434
  YS02001783           JUNCTION      0.00  1144.96     0  01:50           0        2.83       0.242
  YS02001784           JUNCTION      1.06  1152.64     0  01:50      0.0305        2.86       0.373
  YS02001786           JUNCTION      0.06  1158.54     0  01:50     0.00162        2.85       0.469
  YS02001788           JUNCTION      0.07  1171.06     0  01:50     0.00204        2.84       0.476
  YS02001790           JUNCTION      0.15  1091.75     0  01:50     0.00446        2.83       0.601
  YS02001791           JUNCTION      0.00  1059.01     0  01:49           0        2.81       0.495
  YS02001793           JUNCTION      0.00  1045.60     0  01:50           0         2.8       0.584
  YS02001882           JUNCTION      0.00    73.55     0  01:48           0      0.0124       3.991
  YS02001884           JUNCTION      0.00   131.82     0  01:48           0      0.0486       5.198
  YS02001887           JUNCTION    486.45   535.43     0  01:48       0.724       0.758       0.569
  YS02001890           JUNCTION      0.00   562.58     0  01:48           0       0.717       0.688
  YS02001895           JUNCTION      0.00   577.30     0  01:48           0       0.712       0.245
  YS02001898           JUNCTION      0.00   527.71     0  01:49           0        0.71      -0.026
  YS02001901           JUNCTION      0.00   540.63     0  01:49           0       0.713       0.472
  YS02001904           JUNCTION      0.00   546.14     0  01:49           0       0.718       0.365
  YS02001907           JUNCTION      0.00  1400.93     0  01:51           0        2.18       0.811
  YS02001910           JUNCTION      0.00   951.26     0  01:51           0        1.47       0.492
  YS02001915           JUNCTION    499.36   950.95     0  01:51       0.885        1.51       0.073
  YS02001918           JUNCTION      0.00   521.96     0  01:49           0       0.659      -0.017
  YS02001920           JUNCTION      2.87   450.60     0  01:51      0.0827       0.637       0.108
  YS02001923           JUNCTION      0.04   555.69     0  01:49     0.00109       0.538      -0.291
  YS02001926           JUNCTION      0.05   777.88     0  01:50      0.0015       0.518       0.163
  YS02001929           JUNCTION    253.27   652.29     0  01:50       0.498       0.503      -0.122
  YS02006553           JUNCTION      0.00   668.98     0  02:03           0        1.88       0.624
  YS02006556           JUNCTION      0.00   670.35     0  02:02           0        1.89       0.403
  YS02006558           JUNCTION    607.35  1187.00     0  01:50           1        2.86       0.124
  YS02006561           JUNCTION      0.00  1182.96     0  01:50           0        2.83      -0.011
  YS02163301           JUNCTION      0.00   917.56     0  01:49           0        2.87       0.847
  YS02163601           JUNCTION      0.11  1436.77     0  01:49     0.00317        3.86       0.781
  YS02164001           JUNCTION      0.00  1436.82     0  01:49           0        3.84       0.537
  CC-1                 OUTFALL       0.00   683.00     0  00:00           0       0.208       0.000
  CC-2                 OUTFALL       0.00   683.00     0  00:00           0       0.208       0.000
  JK-1                 OUTFALL       0.00  1000.00     0  00:00           0      0.0791       0.000
  JK-2                 OUTFALL       0.00  1000.00     0  00:00           0      0.0791       0.000
  WSC                  OUTFALL       0.00   818.15     0  02:24           0        14.5       0.000
  CC-storage           STORAGE       0.00  3177.07     0  01:53           0        9.45       0.392
  JK-storage           STORAGE       0.00  1048.68     0  01:50           0        2.93       0.532
  XR-storage           STORAGE     200.00   200.00     0  00:00        5.76        6.36     -41.886
  
  
  **********************
  Node Surcharge Summary
  **********************
  
  Surcharging occurs when water rises above the top of the highest conduit.
  ---------------------------------------------------------------------
                                               Max. Height   Min. Depth
                                   Hours       Above Crown    Below Rim
  Node                 Type      Surcharged         Meters       Meters
  ---------------------------------------------------------------------
  WS02006109           JUNCTION        1.68          0.017        1.803
  WS02006228           JUNCTION        1.67          0.021        2.179
  WS02006229           JUNCTION        1.69          0.029        2.421
  WS02006232           JUNCTION        1.75          0.051        1.429
  WS02006235           JUNCTION        1.69          0.055        1.235
  WS02006238           JUNCTION        1.72          0.090        1.340
  WS02006239           JUNCTION        1.70          0.065        1.225
  WS02006240           JUNCTION        1.70          0.078        1.312
  WS02006242           JUNCTION        1.78          0.175        0.645
  WS02006243           JUNCTION        1.72          0.133        0.637
  WS02006245           JUNCTION        1.72          0.146        0.704
  WS02006247           JUNCTION        1.74          0.181        0.579
  WS02006248           JUNCTION        1.71          0.137        0.243
  WS02006249           JUNCTION        1.73          0.200        0.190
  WS02006252           JUNCTION        2.10          1.100        0.000
  WS02006256           JUNCTION        3.23          2.050        0.000
  YS02001580           JUNCTION        0.34          0.450        0.000
  YS02001583           JUNCTION        0.35          0.500        0.000
  YS02001586           JUNCTION        0.51          0.510        0.000
  YS02001590           JUNCTION        0.59          0.750        0.000
  YS02001593           JUNCTION        0.59          0.827        0.013
  YS02001596           JUNCTION        0.73          0.974        0.096
  YS02001600           JUNCTION        1.19          1.190        0.000
  YS02001601           JUNCTION        6.36          1.440        0.000
  YS02001602           JUNCTION        6.33          1.270        0.000
  YS02001605           JUNCTION        6.31          1.180        0.000
  YS02001607           JUNCTION        0.70          0.649        0.031
  YS02001610           JUNCTION        0.79          0.680        0.000
  YS02001613           JUNCTION        0.70          0.664        0.036
  YS02001616           JUNCTION        0.61          0.610        0.000
  YS02001619           JUNCTION        0.59          0.610        0.000
  YS02001622           JUNCTION        0.59          0.620        0.000
  YS02001625           JUNCTION        6.06          0.780        0.000
  YS02001629           JUNCTION        0.52          0.470        0.000
  YS02001633           JUNCTION        6.22          0.978        0.082
  YS02001641           JUNCTION        6.21          0.888        0.212
  YS02001644           JUNCTION        6.21          0.872        0.048
  YS02001647           JUNCTION        5.97          0.618        0.282
  YS02001649           JUNCTION        6.17          0.761        0.289
  YS02001652           JUNCTION        5.58          0.609        0.521
  YS02001655           JUNCTION        0.10          0.484        0.716
  YS02001658           JUNCTION        0.01          0.354        0.946
  YS02001751           JUNCTION        0.01          0.239        0.961
  YS02001754           JUNCTION        3.55          0.314        0.836
  YS02001757           JUNCTION        6.17          0.660        0.550
  YS02001759           JUNCTION        6.16          0.601        0.609
  YS02001762           JUNCTION        6.16          0.595        0.555
  YS02001765           JUNCTION        6.16          0.614        0.486
  YS02001767           JUNCTION        6.16          0.622        0.408
  YS02001770           JUNCTION        6.16          0.730        0.190
  YS02001774           JUNCTION        6.16          0.878        0.172
  YS02001779           JUNCTION        0.30          0.680        0.000
  YS02001783           JUNCTION        0.48          1.033        0.567
  YS02001784           JUNCTION        0.49          1.020        0.470
  YS02001786           JUNCTION        0.46          0.981        0.449
  YS02001788           JUNCTION        0.46          1.086        0.394
  YS02001790           JUNCTION        6.16          0.965        0.192
  YS02001791           JUNCTION        6.17          0.772        1.148
  YS02001793           JUNCTION        6.17          0.930        1.670
  YS02001882           JUNCTION        0.34          0.817        0.013
  YS02001884           JUNCTION        0.35          0.782        0.088
  YS02001887           JUNCTION        0.38          0.812        0.138
  YS02001890           JUNCTION        0.39          0.760        0.000
  YS02001895           JUNCTION        0.33          0.598        0.152
  YS02001898           JUNCTION        0.32          0.671        0.069
  YS02001901           JUNCTION        0.37          0.672        0.198
  YS02001904           JUNCTION        0.36          0.636        0.214
  YS02001907           JUNCTION        0.54          0.950        0.000
  YS02001910           JUNCTION        0.41          0.983        0.117
  YS02001915           JUNCTION        0.34          0.925        0.075
  YS02001918           JUNCTION        0.25          0.810        0.000
  YS02001920           JUNCTION        0.26          1.140        0.000
  YS02001923           JUNCTION        0.01          0.820        0.000
  YS02001926           JUNCTION        0.01          0.900        0.000
  YS02001929           JUNCTION        0.01          0.780        0.000
  YS02006553           JUNCTION        0.55          1.052        0.138
  YS02006556           JUNCTION        0.48          1.084        0.266
  YS02006558           JUNCTION        0.47          1.097        0.303
  YS02006561           JUNCTION        0.28          0.563        0.587
  YS02163301           JUNCTION        6.22          0.913        0.117
  YS02163601           JUNCTION        6.23          0.993        0.087
  YS02164001           JUNCTION        6.22          0.900        0.200
  
  
  *********************
  Node Flooding Summary
  *********************
  
  Flooding refers to all water that overflows a node, whether it ponds or not.
  --------------------------------------------------------------------------
                                                             Total   Maximum
                                 Maximum   Time of Max       Flood    Ponded
                        Hours       Rate    Occurrence      Volume     Depth
  Node                 Flooded       LPS   days hr:min    10^6 ltr    Meters
  --------------------------------------------------------------------------
  WS02006252              0.01    245.63      0  00:00       0.000     0.000
  WS02006256              0.02    293.19      0  00:00       0.005     0.000
  YS02001580              0.01    100.65      0  01:48       0.001     0.000
  YS02001583              0.01    156.44      0  01:48       0.000     0.000
  YS02001586              0.24    150.92      0  01:48       0.053     0.000
  YS02001590              0.01     94.68      0  01:46       0.000     0.000
  YS02001600              0.01      5.65      0  01:48       0.000     0.000
  YS02001601              0.44    659.46      0  01:51       0.572     0.000
  YS02001602              0.34     61.97      0  02:02       0.064     0.000
  YS02001605              0.01      0.33      0  01:51       0.000     0.000
  YS02001610              0.27    220.24      0  01:54       0.133     0.000
  YS02001616              0.01     50.72      0  01:48       0.000     0.000
  YS02001619              0.01     61.76      0  01:48       0.000     0.000
  YS02001622              0.01    221.86      0  01:48       0.001     0.000
  YS02001625              0.22    516.84      0  01:53       0.184     0.000
  YS02001629              0.02    263.20      0  01:48       0.002     0.000
  YS02001779              0.01    318.99      0  01:50       0.002     0.000
  YS02001890              0.01      8.33      0  01:49       0.000     0.000
  YS02001907              0.19   1024.52      0  01:51       0.288     0.000
  YS02001918              0.01    198.38      0  01:51       0.002     0.000
  YS02001920              0.01     48.55      0  01:50       0.000     0.000
  YS02001923              0.01    271.64      0  01:50       0.001     0.000
  YS02001926              0.01    124.03      0  01:50       0.001     0.000
  YS02001929              0.01    122.98      0  01:50       0.000     0.000
  JK-storage              6.16   1048.30      0  01:50       2.443     0.000
  
  
  **********************
  Storage Volume Summary
  **********************
  
  ------------------------------------------------------------------------------------------------
                         Average    Avg   Evap  Exfil     Maximum    Max    Time of Max    Maximum
                          Volume   Pcnt   Pcnt   Pcnt      Volume   Pcnt     Occurrence    Outflow
  Storage Unit           1000 m³   Full   Loss   Loss     1000 m³   Full    days hr:min        LPS
  ------------------------------------------------------------------------------------------------
  CC-storage               4.787   74.7    0.0    0.0       6.054   94.4       0  07:29    1783.53
  JK-storage               0.231   79.2    0.0    0.0       0.291  100.0       0  01:50    2300.00
  XR-storage               0.034    2.3    0.0    0.0       0.600   41.7       0  00:00     380.00
  
  
  ***********************
  Outfall Loading Summary
  ***********************
  
  -----------------------------------------------------------
                         Flow       Avg       Max       Total
                         Freq      Flow      Flow      Volume
  Outfall Node           Pcnt       LPS       LPS    10^6 ltr
  -----------------------------------------------------------
  CC-1                   1.23    683.00    683.00       0.208
  CC-2                   1.23    683.00    683.00       0.208
  JK-1                   1.15    347.46   1000.00       0.079
  JK-2                   1.15    347.46   1000.00       0.079
  WSC                   99.93    544.16    818.15      14.498
  -----------------------------------------------------------
  System                20.94   2605.08   3366.35      15.073
  
  
  ********************
  Link Flow Summary
  ********************
  
  -----------------------------------------------------------------------------
                                 Maximum  Time of Max   Maximum    Max/    Max/
                                  |Flow|   Occurrence   |Veloc|    Full    Full
  Link                 Type          LPS  days hr:min     m/sec    Flow   Depth
  -----------------------------------------------------------------------------
  1                    CONDUIT    818.15     0  02:24      3.15    0.28    0.37
  WS02001211WS02001212 CONDUIT    390.85     0  03:36      0.78    0.30    0.64
  WS02001212WS02001213 CONDUIT    392.60     0  03:35      1.32    0.61    0.45
  WS02001213WS02003059 CONDUIT    395.65     0  03:35      0.85    0.65    0.75
  WS02003059WS02003060 CONDUIT    399.96     0  03:35      0.95    0.26    0.63
  WS02003060WS02003069 CONDUIT    816.04     0  02:22      1.80    0.32    0.42
  WS02003066WSF200     CONDUIT    411.87     0  02:21      2.69    0.07    0.19
  WS02003067WS02003066 CONDUIT    411.87     0  02:21      1.04    0.13    0.38
  WS02003069WS02003072 CONDUIT    816.35     0  02:22      1.55    0.39    0.47
  WS02003072WS02003073 CONDUIT    816.34     0  02:23      1.64    1.76    0.45
  WS02004138WS02004139 CONDUIT    395.20     0  00:00      3.65    0.08    0.43
  WS02004139WS02001211 CONDUIT    381.78     0  03:33      0.91    0.48    0.59
  WS02004401WS02004402 CONDUIT    412.17     0  03:22      0.99    0.49    0.77
  WS02004402WS02004403 CONDUIT    412.21     0  03:23      0.99    0.59    0.79
  WS02004403WS02004404 CONDUIT    412.09     0  03:23      0.93    0.30    0.84
  WS02004404WS02004405 CONDUIT    412.28     0  03:23      1.10    4.04    0.88
  WS02004405WS02004406 CONDUIT    412.40     0  03:23      1.03    0.81    0.88
  WS02004406WS02004407 CONDUIT    412.13     0  03:23      0.89    0.18    0.57
  WS02004407WS02004409 CONDUIT    412.03     0  03:24      1.41    0.15    0.42
  WS02004409WS02004410 CONDUIT    411.96     0  03:24      0.92    0.53    0.58
  WS02004410WS02004411 CONDUIT    411.92     0  02:26      0.86    0.56    0.60
  WS02004411WS02004412 CONDUIT    411.91     0  02:32      0.81    0.59    0.61
  WS02004412WS02004413 CONDUIT    411.92     0  02:27      0.70    0.28    0.70
  WS02004413WS02003067 CONDUIT    411.86     0  02:21      0.96    0.18    0.53
  WS02006109WS02006110 CONDUIT    412.07     0  01:58      0.84    0.79    0.94
  WS02006110WS02006113 CONDUIT    411.97     0  02:23      1.03    0.37    0.75
  WS02006111WS02006112 CONDUIT    413.81     0  02:23      1.83    0.20    0.65
  WS02006112WS02006115 CONDUIT    412.64     0  02:23      0.71    0.24    0.78
  WS02006113WS02006111 CONDUIT    423.61     0  01:49      2.25    0.51    0.40
  WS02006115WS02006116 CONDUIT    412.29     0  03:22      0.98    0.53    0.66
  WS02006116WS02004401 CONDUIT    412.29     0  03:22      1.00    0.57    0.74
  WS02006228WS02006109 CONDUIT    411.32     0  01:58      1.06    1.80    1.00
  WS02006229WS02006228 CONDUIT    412.53     0  01:58      1.13    1.37    1.00
  WS02006230WS02006229 CONDUIT    411.16     0  01:58      1.22    9.15    1.00
  WS02006231WS02006230 CONDUIT    400.35     0  01:57      1.37    6.07    0.77
  WS02006232WS02006231 CONDUIT    400.41     0  01:57      1.08    0.84    0.92
  WS02006234WS02006232 CONDUIT    400.37     0  01:57      1.40    0.81    1.00
  WS02006235WS02006234 CONDUIT    401.45     0  01:57      1.29    4.24    0.99
  WS02006238WS02006235 CONDUIT    401.83     0  02:26      1.47    0.90    1.00
  WS02006239WS02006238 CONDUIT    401.41     0  02:01      1.21    1.28    1.00
  WS02006240WS02006239 CONDUIT    401.08     0  01:54      1.30    1.26    1.00
  WS02006242WS02006240 CONDUIT    400.92     0  02:42      1.16    1.59    1.00
  WS02006243WS02006242 CONDUIT    401.57     0  02:57      1.43    0.86    1.00
  WS02006245WS02006243 CONDUIT    401.77     0  02:40      1.45    1.19    1.00
  WS02006247WS02006245 CONDUIT    403.78     0  02:43      1.43    3.20    1.00
  WS02006248WS02006247 CONDUIT    400.89     0  02:21      1.46    0.87    1.00
  WS02006249WS02006248 CONDUIT    401.12     0  01:57      1.40    2.20    1.00
  WS02006251WS02006249 CONDUIT    465.26     0  07:46      1.99    1.34    1.00
  WS02006252WS02006251 CONDUIT    403.28     0  07:46     26.28    1.48    1.00
  WS02006256WS02006235 CONDUIT    288.91     0  00:00      4.23    3.06    1.00
  WSF200WS02003060     CONDUIT    411.87     0  02:21      1.43    0.09    0.30
  YS02001580YS02001583 CONDUIT    171.71     0  01:47      0.89    0.67    1.00
  YS02001583YS02001586 CONDUIT    208.89     0  01:48      0.91    0.32    1.00
  YS02001586YS02001590 CONDUIT    318.08     0  02:00      1.29    0.56    1.00
  YS02001590YS02001593 CONDUIT    318.08     0  01:52      1.12    2.00    1.00
  YS02001593YS02001596 CONDUIT    317.98     0  02:00      1.62    0.50    1.00
  YS02001596YS02001600 CONDUIT    318.11     0  02:00      1.13    0.62    1.00
  YS02001600YS02001601 CONDUIT    317.88     0  01:56      1.12    0.55    1.00
  YS02001601YS02001602 CONDUIT    569.92     0  01:47      2.02    2.06    1.00
  YS02001602YS02001605 CONDUIT    569.60     0  01:47      2.01   12.05    1.00
  YS02001605YS02001607 CONDUIT    569.81     0  01:47      2.02    3.12    1.00
  YS02001607YS02001610 CONDUIT    542.40     0  01:47      0.70    0.52    1.00
  YS02001610YS02001613 CONDUIT    544.42     0  01:47      0.69    0.63    1.00
  YS02001613YS02001616 CONDUIT    546.39     0  01:47      0.70    0.47    1.00
  YS02001616YS02001619 CONDUIT    494.43     0  01:47      0.66    0.86    1.00
  YS02001619YS02001622 CONDUIT    949.34     0  01:48      1.25    1.40    1.00
  YS02001622YS02001625 CONDUIT    929.34     0  01:48      1.18    0.50    1.00
  YS02001625YS02001629 CONDUIT    920.54     0  01:48      1.18    0.44    1.00
  YS02001629YS02163301 CONDUIT    917.56     0  01:49      1.17    1.13    1.00
  YS02001633YS02163601 CONDUIT   1436.66     0  01:49      1.83    1.51    1.00
  YS02001641YS02001644 CONDUIT   1434.34     0  01:49      1.83    4.64    1.00
  YS02001644YS02001647 CONDUIT   1891.39     0  01:49      2.42    1.11    1.00
  YS02001647YS02001649 CONDUIT   1874.69     0  01:49      2.43    0.99    1.00
  YS02001649YS02001757 CONDUIT   2229.29     0  01:49      2.84    1.35    1.00
  YS02001652YS02001649 CONDUIT    597.76     0  01:53      0.82    0.30    1.00
  YS02001655YS02001652 CONDUIT    596.89     0  01:53      1.42    0.29    1.00
  YS02001658YS02001655 CONDUIT    642.79     0  01:51      2.05    0.27    1.00
  YS02001661YS02001658 CONDUIT    717.97     0  01:52      2.40    0.28    0.77
  YS02001664YS02001661 CONDUIT    488.18     0  01:51      2.29    0.15    0.48
  YS02001745YS02001748 CONDUIT    408.72     0  01:52      2.23    0.16    0.54
  YS02001748YS02001751 CONDUIT    481.75     0  01:52      1.84    0.24    0.90
  YS02001751YS02001754 CONDUIT    380.71     0  01:52      1.54    0.18    1.00
  YS02001754YS02001757 CONDUIT    382.75     0  01:52      0.51    0.15    1.00
  YS02001757CaochengTiaoxuchi CONDUIT   3177.07     0  01:53      4.08    1.38    1.00
  YS02001759YS02001757 CONDUIT   1132.38     0  01:50      1.44    0.80    1.00
  YS02001762YS02001759 CONDUIT    682.98     0  01:50      0.87    0.79    1.00
  YS02001765YS02001762 CONDUIT    674.09     0  01:50      0.86    0.63    1.00
  YS02001767YS02001765 CONDUIT    665.61     0  01:50      0.85    0.84    1.00
  YS02001770YS02001767 CONDUIT    658.20     0  01:50      0.84    2.61    1.00
  YS02001774YS02001770 CONDUIT    386.33     0  01:50      0.49    0.25    1.00
  YS02001779YS02001774 CONDUIT    395.06     0  01:50      0.51    0.20    1.00
  YS02001783YS02001784 CONDUIT   1151.58     0  01:50      2.29    1.59    1.00
  YS02001784YS02001785 CONDUIT   1158.49     0  01:50      2.30    2.70    1.00
  YS02001786YS02001788 CONDUIT   1170.99     0  01:50      2.43    2.26    1.00
  YS02001788YS02001790 CONDUIT   1091.60     0  01:50      2.59    0.80    1.00
  YS02001790YS02001791 CONDUIT   1059.01     0  01:49      3.01    1.15    1.00
  YS02001791YS02001793 CONDUIT   1045.60     0  01:50      5.82    0.45    1.00
  YS02001793JiankangQianchi CONDUIT   1048.68     0  01:50      1.65    0.08    1.00
  YS02001882YS02001884 CONDUIT     73.55     0  01:48      0.13    0.08    1.00
  YS02001884YS02001887 CONDUIT    131.82     0  01:48      0.17    0.18    1.00
  YS02001887YS02001890 CONDUIT    562.58     0  01:48      0.72    0.96    1.00
  YS02001890YS02001895 CONDUIT    577.30     0  01:48      0.74    0.27    1.00
  YS02001895YS02001898 CONDUIT    527.71     0  01:49      0.67    0.92    1.00
  YS02001898YS02001901 CONDUIT    540.63     0  01:49      0.69    0.35    1.00
  YS02001901YS02001904 CONDUIT    546.14     0  01:49      0.70    0.85    1.00
  YS02001904YS02001907 CONDUIT    553.97     0  01:49      0.71    0.19    1.00
  YS02001907YS02006553 CONDUIT    668.98     0  02:03      0.74    0.79    1.00
  YS02001910YS02001907 CONDUIT    952.66     0  01:51      1.21    0.54    1.00
  YS02001915YS02001910 CONDUIT    951.26     0  01:51      1.21    0.47    1.00
  YS02001918YS02001915 CONDUIT    521.96     0  01:49      0.71    0.29    1.00
  YS02001920YS02001918 CONDUIT    452.23     0  01:51      0.66    0.44    1.00
  YS02001923YS02001920 CONDUIT    447.73     0  01:51      0.76    0.20    1.00
  YS02001926YS02001923 CONDUIT    559.86     0  01:50      1.02    0.80    1.00
  YS02001929YS02001926 CONDUIT    425.06     0  01:50      1.18    0.20    1.00
  YS02006553YS02006556 CONDUIT    670.35     0  02:02      0.85    0.57    1.00
  YS02006556YS02006558 CONDUIT    671.70     0  02:02      0.86    0.53    1.00
  YS02006558YS02006561 CONDUIT   1182.96     0  01:50      4.18    2.61    1.00
  YS02006561YS02001783 CONDUIT   1144.96     0  01:50      2.29    0.59    1.00
  YS02163301YS02001633 CONDUIT    917.32     0  01:49      1.17    0.86    1.00
  YS02163601YS02164001 CONDUIT   1436.82     0  01:49      1.83    1.27    1.00
  YS02164001YS02001641 CONDUIT   1435.14     0  01:49      1.83    1.96    1.00
  CC-R1                PUMP       683.00     0  00:00              1.00
  CC-R2                PUMP       683.00     0  00:00              1.00
  CC-S1                PUMP       200.00     0  00:00              1.00
  CC-S2                PUMP       200.00     0  00:00              1.00
  JK-R1                PUMP      1000.00     0  00:00              1.00
  JK-R2                PUMP      1000.00     0  00:00              1.00
  JK-S                 PUMP       300.00     0  00:00              1.00
  XR-1                 PUMP        95.00     0  00:00              1.00
  XR-2                 PUMP        95.00     0  00:00              1.00
  XR-3                 PUMP        95.00     0  00:00              1.00
  XR-4                 PUMP        95.00     0  00:00              1.00
  
  
  ***************************
  Flow Classification Summary
  ***************************
  
  -------------------------------------------------------------------------------------
                      Adjusted    ---------- Fraction of Time in Flow Class ---------- 
                       /Actual         Up    Down  Sub   Sup   Up    Down  Norm  Inlet 
  Conduit               Length    Dry  Dry   Dry   Crit  Crit  Crit  Crit  Ltd   Ctrl  
  -------------------------------------------------------------------------------------
  1                       1.00   0.00  0.00  0.00  0.00  1.00  0.00  0.00  0.18  0.00
  WS02001211WS02001212    1.00   0.00  0.00  0.00  1.00  0.00  0.00  0.00  0.00  0.00
  WS02001212WS02001213    1.00   0.00  0.00  0.00  0.35  0.00  0.64  0.00  0.00  0.00
  WS02001213WS02003059    1.00   0.00  0.00  0.00  0.99  0.00  0.00  0.00  0.00  0.00
  WS02003059WS02003060    1.00   0.00  0.00  0.00  1.00  0.00  0.00  0.00  0.00  0.00
  WS02003060WS02003069    1.00   0.00  0.00  0.00  0.99  0.01  0.00  0.00  0.00  0.00
  WS02003066WSF200        1.00   0.02  0.10  0.00  0.00  0.88  0.00  0.00  0.86  0.00
  WS02003067WS02003066    1.00   0.10  0.02  0.00  0.89  0.00  0.00  0.00  0.00  0.00
  WS02003069WS02003072    1.00   0.00  0.00  0.00  0.99  0.01  0.00  0.00  0.00  0.00
  WS02003072WS02003073    1.00   0.00  0.00  0.00  0.00  0.00  0.00  1.00  0.00  0.00
  WS02004138WS02004139    1.00   0.00  0.00  0.00  0.99  0.01  0.00  0.00  1.00  0.00
  WS02004139WS02001211    1.00   0.00  0.00  0.00  1.00  0.00  0.00  0.00  0.00  0.00
  WS02004401WS02004402    1.00   0.02  0.00  0.00  0.98  0.00  0.00  0.00  0.00  0.00
  WS02004402WS02004403    1.00   0.02  0.00  0.00  0.98  0.00  0.00  0.00  0.00  0.00
  WS02004403WS02004404    1.00   0.00  0.03  0.00  0.97  0.00  0.00  0.00  0.00  0.00
  WS02004404WS02004405    1.00   0.00  0.00  0.00  1.00  0.00  0.00  0.00  0.00  0.00
  WS02004405WS02004406    1.00   0.00  0.00  0.00  1.00  0.00  0.00  0.00  0.00  0.00
  WS02004406WS02004407    1.00   0.00  0.05  0.00  0.95  0.00  0.00  0.00  0.00  0.00
  WS02004407WS02004409    1.00   0.05  0.00  0.00  0.94  0.01  0.00  0.00  0.94  0.00
  WS02004409WS02004410    1.00   0.05  0.00  0.00  0.95  0.00  0.00  0.00  0.02  0.00
  WS02004410WS02004411    1.00   0.05  0.00  0.00  0.95  0.00  0.00  0.00  0.00  0.00
  WS02004411WS02004412    1.00   0.05  0.00  0.00  0.95  0.00  0.00  0.00  0.00  0.00
  WS02004412WS02004413    1.00   0.05  0.00  0.00  0.94  0.00  0.00  0.00  0.01  0.00
  WS02004413WS02003067    1.00   0.06  0.04  0.00  0.00  0.00  0.90  0.00  0.00  0.00
  WS02006109WS02006110    1.00   0.00  0.01  0.00  0.98  0.00  0.01  0.00  0.00  0.00
  WS02006110WS02006113    1.00   0.01  0.01  0.00  0.98  0.00  0.00  0.00  0.00  0.00
  WS02006111WS02006112    1.00   0.02  0.00  0.00  0.98  0.00  0.00  0.00  0.98  0.00
  WS02006112WS02006115    1.00   0.02  0.00  0.00  0.97  0.00  0.00  0.00  0.00  0.00
  WS02006113WS02006111    1.00   0.02  0.00  0.00  0.00  0.98  0.00  0.00  0.11  0.00
  WS02006115WS02006116    1.00   0.02  0.00  0.00  0.97  0.00  0.00  0.01  0.00  0.00
  WS02006116WS02004401    1.00   0.02  0.00  0.00  0.98  0.00  0.00  0.00  0.00  0.00
  WS02006228WS02006109    1.00   0.00  0.00  0.00  1.00  0.00  0.00  0.00  0.00  0.00
  WS02006229WS02006228    1.00   0.00  0.00  0.00  0.99  0.00  0.00  0.01  0.00  0.00
  WS02006230WS02006229    1.00   0.00  0.00  0.00  0.99  0.00  0.00  0.01  0.00  0.00
  WS02006231WS02006230    1.00   0.00  0.00  0.00  0.23  0.00  0.77  0.00  0.00  0.00
  WS02006232WS02006231    1.00   0.00  0.00  0.00  0.99  0.00  0.01  0.00  0.00  0.00
  WS02006234WS02006232    1.00   0.00  0.00  0.00  1.00  0.00  0.00  0.00  0.50  0.00
  WS02006235WS02006234    1.00   0.00  0.00  0.00  0.46  0.00  0.54  0.00  0.00  0.00
  WS02006238WS02006235    1.00   0.00  0.00  0.00  1.00  0.00  0.00  0.00  0.00  0.00
  WS02006239WS02006238    1.00   0.00  0.00  0.00  1.00  0.00  0.00  0.00  0.59  0.00
  WS02006240WS02006239    1.00   0.00  0.00  0.00  0.37  0.00  0.00  0.63  0.01  0.00
  WS02006242WS02006240    1.00   0.00  0.00  0.00  0.99  0.00  0.01  0.00  0.00  0.00
  WS02006243WS02006242    1.00   0.00  0.00  0.00  0.99  0.00  0.00  0.01  0.68  0.00
  WS02006245WS02006243    1.00   0.00  0.00  0.00  0.42  0.00  0.00  0.58  0.00  0.00
  WS02006247WS02006245    1.00   0.00  0.00  0.00  0.99  0.00  0.00  0.01  0.00  0.00
  WS02006248WS02006247    1.00   0.00  0.00  0.00  0.99  0.00  0.00  0.01  0.13  0.00
  WS02006249WS02006248    1.00   0.00  0.00  0.00  0.32  0.00  0.68  0.00  0.00  0.00
  WS02006251WS02006249    1.00   0.00  0.00  0.00  1.00  0.00  0.00  0.00  0.69  0.00
  WS02006252WS02006251    1.00   0.00  0.72  0.00  0.00  0.00  0.28  0.00  0.53  0.00
  WS02006256WS02006235    1.00   0.00  0.00  0.00  1.00  0.00  0.00  0.00  0.00  0.00
  WSF200WS02003060        1.00   0.00  0.02  0.00  0.98  0.00  0.00  0.00  0.67  0.00
  YS02001580YS02001583    1.00   0.22  0.61  0.00  0.17  0.00  0.00  0.00  0.70  0.00
  YS02001583YS02001586    1.00   0.50  0.28  0.00  0.22  0.00  0.00  0.00  0.71  0.00
  YS02001586YS02001590    1.00   0.13  0.00  0.00  0.37  0.04  0.00  0.46  0.33  0.00
  YS02001590YS02001593    1.00   0.13  0.01  0.00  0.09  0.00  0.77  0.00  0.00  0.00
  YS02001593YS02001596    1.00   0.14  0.00  0.00  0.71  0.05  0.00  0.10  0.66  0.00
  YS02001596YS02001600    1.00   0.14  0.00  0.00  0.80  0.00  0.00  0.06  0.01  0.00
  YS02001600YS02001601    1.00   0.13  0.01  0.00  0.86  0.00  0.00  0.00  0.04  0.00
  YS02001601YS02001602    1.00   0.13  0.01  0.00  0.86  0.00  0.00  0.00  0.00  0.00
  YS02001602YS02001605    1.00   0.14  0.00  0.00  0.86  0.00  0.00  0.00  0.00  0.00
  YS02001605YS02001607    1.00   0.14  0.00  0.00  0.86  0.00  0.00  0.00  0.00  0.00
  YS02001607YS02001610    1.00   0.13  0.01  0.00  0.86  0.00  0.00  0.00  0.02  0.00
  YS02001610YS02001613    1.00   0.13  0.00  0.00  0.87  0.00  0.00  0.00  0.01  0.00
  YS02001613YS02001616    1.00   0.13  0.00  0.00  0.87  0.00  0.00  0.00  0.00  0.00
  YS02001616YS02001619    1.00   0.13  0.00  0.00  0.87  0.00  0.00  0.00  0.00  0.00
  YS02001619YS02001622    1.00   0.13  0.00  0.00  0.87  0.00  0.00  0.00  0.00  0.00
  YS02001622YS02001625    1.00   0.13  0.00  0.00  0.87  0.00  0.00  0.00  0.05  0.00
  YS02001625YS02001629    1.00   0.13  0.05  0.00  0.79  0.00  0.03  0.00  0.00  0.00
  YS02001629YS02163301    1.00   0.16  0.01  0.00  0.83  0.00  0.00  0.00  0.00  0.00
  YS02001633YS02163601    1.00   0.00  0.01  0.00  0.99  0.00  0.00  0.00  0.15  0.00
  YS02001641YS02001644    1.00   0.00  0.01  0.00  0.99  0.00  0.00  0.00  0.00  0.00
  YS02001644YS02001647    1.00   0.00  0.17  0.00  0.83  0.00  0.00  0.00  0.00  0.00
  YS02001647YS02001649    1.00   0.00  0.17  0.00  0.83  0.00  0.00  0.00  0.01  0.00
  YS02001649YS02001757    1.00   0.00  0.00  0.00  0.98  0.01  0.00  0.00  0.19  0.00
  YS02001652YS02001649    1.00   0.00  0.00  0.00  0.96  0.04  0.00  0.00  0.16  0.00
  YS02001655YS02001652    1.00   0.00  0.00  0.00  0.78  0.00  0.00  0.21  0.00  0.00
  YS02001658YS02001655    1.00   0.00  0.14  0.00  0.78  0.08  0.00  0.00  0.01  0.00
  YS02001661YS02001658    1.00   0.14  0.00  0.00  0.77  0.09  0.00  0.00  0.02  0.00
  YS02001664YS02001661    1.00   0.13  0.00  0.00  0.79  0.09  0.00  0.00  0.86  0.00
  YS02001745YS02001748    1.00   0.00  0.00  0.00  0.77  0.00  0.00  0.23  0.06  0.00
  YS02001748YS02001751    1.00   0.00  0.00  0.00  0.91  0.09  0.00  0.00  0.13  0.00
  YS02001751YS02001754    1.00   0.00  0.00  0.00  0.78  0.00  0.00  0.22  0.00  0.00
  YS02001754YS02001757    1.00   0.00  0.00  0.00  1.00  0.00  0.00  0.00  0.22  0.00
  YS02001757CaochengTiaoxuchi    1.00   0.00  0.00  0.00  0.98  0.02  0.00  0.00  0.21  0.00
  YS02001759YS02001757    1.00   0.00  0.00  0.00  1.00  0.00  0.00  0.00  0.06  0.00
  YS02001762YS02001759    1.00   0.00  0.00  0.00  1.00  0.00  0.00  0.00  0.04  0.00
  YS02001765YS02001762    1.00   0.00  0.00  0.00  1.00  0.00  0.00  0.00  0.16  0.00
  YS02001767YS02001765    1.00   0.00  0.00  0.00  1.00  0.00  0.00  0.00  0.00  0.00
  YS02001770YS02001767    1.00   0.00  0.00  0.00  1.00  0.00  0.00  0.00  0.00  0.00
  YS02001774YS02001770    1.00   0.00  0.13  0.00  0.86  0.00  0.00  0.00  0.03  0.00
  YS02001779YS02001774    1.00   0.00  0.00  0.00  1.00  0.00  0.00  0.00  0.18  0.00
  YS02001783YS02001784    1.00   0.00  0.18  0.00  0.82  0.00  0.00  0.00  0.00  0.00
  YS02001784YS02001785    1.00   0.00  0.00  0.00  1.00  0.00  0.00  0.00  0.17  0.00
  YS02001786YS02001788    1.00   0.00  0.00  0.00  0.97  0.03  0.00  0.00  0.00  0.00
  YS02001788YS02001790    1.00   0.00  0.00  0.00  0.96  0.04  0.00  0.00  0.19  0.00
  YS02001790YS02001791    1.00   0.00  0.00  0.00  0.78  0.22  0.00  0.00  0.02  0.00
  YS02001791YS02001793    1.00   0.00  0.00  0.00  0.77  0.23  0.00  0.00  0.00  0.00
  YS02001793JiankangQianchi    1.00   0.00  0.00  0.00  0.93  0.06  0.00  0.00  0.20  0.00
  YS02001882YS02001884    1.00   0.15  0.01  0.00  0.84  0.00  0.00  0.00  0.00  0.00
  YS02001884YS02001887    1.00   0.06  0.05  0.00  0.89  0.00  0.00  0.00  0.00  0.00
  YS02001887YS02001890    1.00   0.00  0.00  0.00  0.97  0.00  0.03  0.00  0.00  0.00
  YS02001890YS02001895    1.00   0.00  0.16  0.00  0.83  0.00  0.00  0.00  0.00  0.00
  YS02001895YS02001898    1.00   0.17  0.00  0.00  0.81  0.00  0.02  0.00  0.00  0.00
  YS02001898YS02001901    1.00   0.17  0.00  0.00  0.83  0.00  0.00  0.00  0.01  0.00
  YS02001901YS02001904    1.00   0.17  0.00  0.00  0.83  0.00  0.00  0.00  0.00  0.00
  YS02001904YS02001907    1.00   0.00  0.17  0.00  0.83  0.00  0.00  0.00  0.00  0.00
  YS02001907YS02006553    1.00   0.00  0.02  0.00  0.98  0.00  0.00  0.00  0.00  0.00
  YS02001910YS02001907    1.00   0.00  0.00  0.00  0.97  0.00  0.00  0.03  0.12  0.00
  YS02001915YS02001910    1.00   0.00  0.00  0.00  0.97  0.03  0.00  0.00  0.16  0.00
  YS02001918YS02001915    1.00   0.00  0.01  0.00  0.98  0.02  0.00  0.00  0.78  0.00
  YS02001920YS02001918    1.00   0.00  0.01  0.00  0.99  0.00  0.00  0.00  0.00  0.00
  YS02001923YS02001920    1.00   0.00  0.00  0.00  1.00  0.00  0.00  0.00  0.94  0.00
  YS02001926YS02001923    1.00   0.00  0.07  0.00  0.04  0.00  0.88  0.00  0.00  0.00
  YS02001929YS02001926    1.00   0.00  0.13  0.00  0.87  0.00  0.00  0.00  0.84  0.00
  YS02006553YS02006556    1.00   0.01  0.00  0.00  0.99  0.00  0.00  0.00  0.03  0.00
  YS02006556YS02006558    1.00   0.00  0.00  0.00  1.00  0.00  0.00  0.00  0.00  0.00
  YS02006558YS02006561    1.00   0.18  0.00  0.00  0.05  0.77  0.00  0.00  0.19  0.00
  YS02006561YS02001783    1.00   0.18  0.00  0.00  0.78  0.04  0.00  0.00  0.74  0.00
  YS02163301YS02001633    1.00   0.00  0.16  0.00  0.84  0.00  0.00  0.00  0.00  0.00
  YS02163601YS02164001    1.00   0.00  0.08  0.00  0.92  0.00  0.00  0.00  0.00  0.00
  YS02164001YS02001641    1.00   0.01  0.07  0.00  0.92  0.00  0.00  0.00  0.06  0.00
  
  
  *************************
  Conduit Surcharge Summary
  *************************
  
  ----------------------------------------------------------------------------
                                                           Hours        Hours 
                         --------- Hours Full --------   Above Full   Capacity
  Conduit                Both Ends  Upstream  Dnstream   Normal Flow   Limited
  ----------------------------------------------------------------------------
  WS02003072WS02003073        0.01      0.01      0.01      2.23         0.01
  WS02004404WS02004405        0.01      0.01      0.01      2.15         0.01
  WS02006109WS02006110        0.01      0.01      1.75      0.01         0.01
  WS02006110WS02006113        0.01      0.01      1.71      0.01         0.01
  WS02006111WS02006112        0.01      0.01      1.79      0.01         0.01
  WS02006228WS02006109        1.68      1.75      1.68      1.96         1.68
  WS02006229WS02006228        1.67      1.69      1.67      1.84         1.67
  WS02006230WS02006229        1.79      1.82      1.79      2.60         1.79
  WS02006231WS02006230        0.01      0.01      0.01      2.41         0.01
  WS02006232WS02006231        0.01      0.01      1.75      0.01         0.01
  WS02006234WS02006232        1.64      1.64      1.75      0.01         0.01
  WS02006235WS02006234        0.01      0.01      1.69      2.30         0.01
  WS02006238WS02006235        1.70      1.70      1.76      0.01         0.01
  WS02006239WS02006238        1.72      1.75      1.72      1.90         1.72
  WS02006240WS02006239        1.70      1.71      1.70      1.92         1.70
  WS02006242WS02006240        1.70      1.70      1.80      2.01         0.01
  WS02006243WS02006242        1.73      1.73      1.78      0.01         0.01
  WS02006245WS02006243        1.72      1.73      1.72      1.99         1.71
  WS02006247WS02006245        1.72      1.75      1.72      2.19         1.72
  WS02006248WS02006247        1.72      1.72      1.74      0.01         0.01
  WS02006249WS02006248        1.71      1.71      1.73      2.16         0.01
  WS02006251WS02006249        1.73      1.74      1.73      2.06         1.73
  WS02006252WS02006251        2.09      2.09      2.10      2.10         0.01
  WS02006256WS02006235        2.37      2.37      3.23      0.02         0.01
  YS02001580YS02001583        0.34      0.34      0.39      0.01         0.01
  YS02001583YS02001586        0.35      0.35      0.51      0.01         0.01
  YS02001586YS02001590        0.52      0.52      0.59      0.01         0.01
  YS02001590YS02001593        0.60      0.60      0.61      0.61         0.01
  YS02001593YS02001596        0.60      0.60      0.73      0.01         0.01
  YS02001596YS02001600        0.81      0.81      1.19      0.01         0.01
  YS02001600YS02001601        1.37      1.37      6.36      0.01         0.01
  YS02001601YS02001602        6.33      6.33      6.37      0.78         0.01
  YS02001602YS02001605        6.31      6.31      6.33      1.95         0.02
  YS02001605YS02001607        6.29      6.31      6.29      1.07         0.99
  YS02001607YS02001610        0.70      0.70      0.79      0.01         0.01
  YS02001610YS02001613        0.70      0.70      0.79      0.01         0.01
  YS02001613YS02001616        0.61      0.61      0.70      0.01         0.01
  YS02001616YS02001619        0.59      0.59      0.61      0.01         0.01
  YS02001619YS02001622        0.59      0.59      0.59      0.53         0.45
  YS02001622YS02001625        0.59      0.59      6.06      0.01         0.01
  YS02001625YS02001629        0.52      0.52      6.06      0.01         0.01
  YS02001629YS02163301        6.22      6.22      6.22      0.05         0.12
  YS02001633YS02163601        6.22      6.22      6.23      0.38         0.36
  YS02001641YS02001644        6.21      6.21      6.21      1.19         1.03
  YS02001644YS02001647        5.97      5.97      6.21      0.04         0.01
  YS02001647YS02001649        5.97      5.97      6.17      0.01         0.01
  YS02001649YS02001757        6.17      6.17      6.17      0.23         0.19
  YS02001652YS02001649        6.16      6.16      6.17      0.01         0.01
  YS02001655YS02001652        0.09      0.09      5.58      0.01         0.01
  YS02001658YS02001655        0.01      0.01      0.09      0.01         0.01
  YS02001661YS02001658        0.01      0.01      0.01      0.01         0.01
  YS02001748YS02001751        0.01      0.01      0.01      0.01         0.01
  YS02001751YS02001754        0.01      0.01      3.55      0.01         0.01
  YS02001754YS02001757        5.76      5.76      6.17      0.01         0.01
  YS02001757CaochengTiaoxuchi        6.10      6.17      6.10      0.22         0.13
  YS02001759YS02001757        6.16      6.16      6.17      0.01         0.01
  YS02001762YS02001759        6.16      6.16      6.16      0.01         0.01
  YS02001765YS02001762        6.16      6.16      6.16      0.01         0.01
  YS02001767YS02001765        6.16      6.16      6.16      0.01         0.01
  YS02001770YS02001767        6.16      6.16      6.16      0.32         0.37
  YS02001774YS02001770        6.16      6.16      6.16      0.01         0.01
  YS02001779YS02001774        0.30      0.30      6.16      0.01         0.01
  YS02001783YS02001784        0.48      0.48      0.49      0.44         0.41
  YS02001784YS02001785        0.46      0.49      0.46      0.64         0.46
  YS02001786YS02001788        0.46      0.46      0.46      0.56         0.46
  YS02001788YS02001790        0.46      0.46      6.16      0.01         0.01
  YS02001790YS02001791        6.16      6.16      6.17      0.24         0.22
  YS02001791YS02001793        6.17      6.17      6.18      0.01         0.01
  YS02001793JiankangQianchi        6.17      6.17      6.32      0.01         0.01
  YS02001882YS02001884        0.34      0.34      0.35      0.01         0.01
  YS02001884YS02001887        0.37      0.37      0.38      0.01         0.01
  YS02001887YS02001890        0.39      0.39      0.40      0.01         0.01
  YS02001890YS02001895        0.33      0.33      0.42      0.01         0.01
  YS02001895YS02001898        0.32      0.32      0.33      0.01         0.01
  YS02001898YS02001901        0.33      0.33      0.37      0.01         0.01
  YS02001901YS02001904        0.36      0.36      0.37      0.01         0.01
  YS02001904YS02001907        0.36      0.36      0.55      0.01         0.01
  YS02001907YS02006553        0.65      0.65      0.70      0.01         0.01
  YS02001910YS02001907        0.41      0.41      0.54      0.01         0.01
  YS02001915YS02001910        0.34      0.34      0.41      0.01         0.01
  YS02001918YS02001915        0.25      0.25      0.34      0.01         0.01
  YS02001920YS02001918        0.25      0.25      0.26      0.01         0.01
  YS02001923YS02001920        0.18      0.18      0.26      0.01         0.01
  YS02001926YS02001923        0.01      0.01      0.01      0.01         0.01
  YS02001929YS02001926        0.01      0.01      0.01      0.01         0.01
  YS02006553YS02006556        0.48      0.48      0.55      0.01         0.01
  YS02006556YS02006558        0.51      0.51      0.56      0.01         0.01
  YS02006558YS02006561        0.36      0.47      0.36      0.61         0.36
  YS02006561YS02001783        0.28      0.28      0.48      0.01         0.01
  YS02163301YS02001633        6.22      6.22      6.23      0.01         0.01
  YS02163601YS02164001        6.22      6.22      6.23      0.05         0.01
  YS02164001YS02001641        6.21      6.22      6.21      0.60         0.57
  
  
  ***************
  Pumping Summary
  ***************
  
  ---------------------------------------------------------------------------------------------------------
                                                  Min       Avg       Max     Total     Power    % Time Off
                        Percent   Number of      Flow      Flow      Flow    Volume     Usage    Pump Curve
  Pump                 Utilized   Start-Ups       LPS       LPS       LPS  10^6 ltr     Kw-hr    Low   High
  ---------------------------------------------------------------------------------------------------------
  CC-R1                    1.06           1      0.00    683.00    683.00     0.208      3.51    0.0  100.0
  CC-R2                    1.06           1      0.00    683.00    683.00     0.208      3.51    0.0  100.0
  CC-S1                   26.97           4      0.00    200.00    200.00     1.554      7.21    0.0   48.6
  CC-S2                   27.22           4      0.00    200.00    200.00     1.568      7.24    0.0   49.0
  JK-R1                    0.97           2      0.00    347.46   1000.00     0.078      0.47    0.0    0.0
  JK-R2                    0.97           2      0.00    347.46   1000.00     0.078      0.47    0.0    0.0
  JK-S                     0.97           2      0.00    104.30    300.00     0.023      0.44    0.0    0.0
  XR-1                   100.00           1      0.00     95.00     95.00     2.736     68.18    0.0    0.0
  XR-2                   100.00           1      0.00     95.00     95.00     2.736     68.18    0.0    0.0
  XR-3                   100.00           1      0.00     95.00     95.00     2.736     68.18    0.0    0.0
  XR-4                   100.00           1      0.00     95.00     95.00     2.736     68.18    0.0    0.0
  

  Analysis begun on:  Wed Nov  5 16:29:05 2025
  Analysis ended on:  Wed Nov  5 16:29:07 2025
  Total elapsed time: 00:00:02