
  EPA STORM WATER MANAGEMENT MODEL - VERSION 5.2 (Build 5.2.4)
  PYSWMM TOOLKIT API - VERSION v1.0 (2023-11-27)
  ------------------------------------------------------------

  WARNING 04: minimum elevation drop used for Conduit WS02004404WS02004405
  WARNING 03: negative offset ignored for Link YS02001904YS02001907
  
  ****************
  Analysis Options
  ****************
  Flow Units ............... LPS
  Process Models:
    Rainfall/Runoff ........ YES
    RDII ................... NO
    Snowmelt ............... NO
    Groundwater ............ NO
    Flow Routing ........... YES
    Ponding Allowed ........ NO
    Water Quality .......... NO
  Infiltration Method ...... HORTON
  Flow Routing Method ...... DYNWAVE
  Surcharge Method ......... EXTRAN
  Starting Date ............ 08/28/2015 08:00:00
  Ending Date .............. 08/28/2015 16:00:00
  Antecedent Dry Days ...... 8.0
  Report Time Step ......... 00:01:00
  Wet Time Step ............ 00:01:00
  Dry Time Step ............ 00:01:00
  Routing Time Step ........ 30.00 sec
  Variable Time Step ....... YES
  Maximum Trials ........... 8
  Number of Threads ........ 4
  Head Tolerance ........... 0.001500 m
  
  
  **************************        Volume         Depth
  Runoff Quantity Continuity     hectare-m            mm
  **************************     ---------       -------
  Initial LID Storage ......         0.049         1.488
  Total Precipitation ......         1.198        36.111
  Evaporation Loss .........         0.000         0.000
  Infiltration Loss ........         0.069         2.066
  Surface Runoff ...........         0.852        25.673
  Final Storage ............         0.328         9.885
  Continuity Error (%) .....        -0.066
  
  
  **************************        Volume        Volume
  Flow Routing Continuity        hectare-m      10^6 ltr
  **************************     ---------     ---------
  Dry Weather Inflow .......         0.602         6.020
  Wet Weather Inflow .......         0.852         8.517
  Groundwater Inflow .......         0.000         0.000
  RDII Inflow ..............         0.000         0.000
  External Inflow ..........         0.105         1.045
  External Outflow .........         1.508        15.082
  Flooding Loss ............         0.214         2.144
  Evaporation Loss .........         0.000         0.000
  Exfiltration Loss ........         0.000         0.000
  Initial Stored Volume ....         0.303         3.031
  Final Stored Volume ......         0.599         5.989
  Continuity Error (%) .....       -24.726
  
  
  *************************
  Highest Continuity Errors
  *************************
  Node YS02001774 (17.48%)
  Node YS02001583 (-12.28%)
  Node WS02006256 (-5.94%)
  Node YS02001884 (4.93%)
  Node YS02001767 (2.90%)
  
  
  ***************************
  Time-Step Critical Elements
  ***************************
  Link WS02001212WS02001213 (26.22%)
  Link WS02006238WS02006235 (20.53%)
  Link WS02006235WS02006234 (18.02%)
  Link WS02006252WS02006251 (15.05%)
  Link WS02003066WSF200 (4.80%)
  
  
  ********************************
  Highest Flow Instability Indexes
  ********************************
  Link WS02006113WS02006111 (40)
  Link WS02006111WS02006112 (25)
  Link WS02006110WS02006113 (18)
  Link WS02006256WS02006235 (16)
  Link WS02006238WS02006235 (10)
  
  
  *********************************
  Most Frequent Nonconverging Nodes
  *********************************
  Node CC-1 (6.79%)
  Node CC-2 (6.79%)
  Node JK-1 (6.79%)
  Node JK-2 (6.79%)
  Node WSC (6.79%)
  
  
  *************************
  Routing Time Step Summary
  *************************
  Minimum Time Step           :     0.01 sec
  Average Time Step           :     3.22 sec
  Maximum Time Step           :     6.46 sec
  % of Time in Steady State   :     0.00
  Average Iterations per Step :     2.67
  % of Steps Not Converging   :     6.79
  Time Step Frequencies       :
     30.000 - 13.228 sec      :     0.00 %
     13.228 -  5.833 sec      :    25.49 %
      5.833 -  2.572 sec      :    35.50 %
      2.572 -  1.134 sec      :    17.96 %
      1.134 -  0.500 sec      :    21.05 %
  
  
  ***************************
  Subcatchment Runoff Summary
  ***************************
  
  ------------------------------------------------------------------------------------------------------------------------------
                            Total      Total      Total      Total     Imperv       Perv      Total       Total     Peak  Runoff
                           Precip      Runon       Evap      Infil     Runoff     Runoff     Runoff      Runoff   Runoff   Coeff
  Subcatchment                 mm         mm         mm         mm         mm         mm         mm    10^6 ltr      LPS
  ------------------------------------------------------------------------------------------------------------------------------
  sub60                     36.11       0.00       0.00       1.26      23.60       2.09      25.69        0.34   246.18   0.711
  sub61                     36.11       0.00       0.00       1.93      23.58       3.10      26.67        0.49   351.79   0.739
  sub62                     36.11       0.00       0.00       0.86      25.13       1.42      26.55        0.73   483.18   0.735
  sub63                     36.11       0.00       0.00       3.50      20.19       5.08      25.27        0.57   377.63   0.700
  sub64                     36.11       0.00       0.00       1.68      22.99       2.54      25.52        0.61   376.00   0.707
  sub65                     36.11       0.00       0.00       1.54      24.80       2.31      27.12        0.75   435.45   0.751
  sub66                     36.11       0.00       0.00       4.03      19.50       4.28      23.78        1.11   525.78   0.659
  sub67                     36.11       0.00       0.00       0.86      25.77       1.47      27.25        0.51   396.18   0.754
  sub68                     36.11       0.00       0.00       1.48      22.76       2.37      25.13        0.69   479.26   0.696
  sub69                     36.11       0.00       0.00       1.30      24.25       2.99      27.24        1.01   576.79   0.754
  sub70                     36.11       0.00       0.00       4.31      19.41       5.75      25.15        0.73   306.67   0.697
  sub71                     36.11       0.00       0.00       0.79      22.82       1.28      24.10        0.63   387.46   0.667
  sub72                     36.11       0.00       0.00       0.75      24.64       1.18      25.82        0.36   192.60   0.715
  

  ***********************
  LID Performance Summary
  ***********************

  --------------------------------------------------------------------------------------------------------------------
                                         Total      Evap     Infil   Surface    Drain    Initial     Final  Continuity
                                        Inflow      Loss      Loss   Outflow   Outflow   Storage   Storage       Error
  Subcatchment      LID Control             mm        mm        mm        mm        mm        mm        mm           %
  --------------------------------------------------------------------------------------------------------------------
  sub60             GreenRoof            36.11      0.00      0.00      0.00      0.00      7.05     43.24       -0.18
  sub61             GreenRoof            36.11      0.00      0.00      0.00      0.00      7.05     43.24       -0.18
  sub62             GreenRoof            36.11      0.00      0.00      0.00      0.00      7.05     43.24       -0.18
  sub63             GreenRoof            36.11      0.00      0.00      0.00      0.00      7.05     43.24       -0.18
  sub64             GreenRoof            36.11      0.00      0.00      0.00      0.00      7.05     43.24       -0.18
  sub65             GreenRoof            36.11      0.00      0.00      0.00      0.00      7.05     43.24       -0.18
  sub66             GreenRoof            36.11      0.00      0.00      0.00      0.00      7.05     43.24       -0.18
  sub67             GreenRoof            36.11      0.00      0.00      0.00      0.00      7.05     43.24       -0.18
  sub68             GreenRoof            36.11      0.00      0.00      0.00      0.00      7.05     43.24       -0.18
  sub69             GreenRoof            36.11      0.00      0.00      0.00      0.00      7.05     43.24       -0.18
  sub70             GreenRoof            36.11      0.00      0.00      0.00      0.00      7.05     43.24       -0.18
  sub71             GreenRoof            36.11      0.00      0.00      0.00      0.00      7.05     43.24       -0.18
  sub72             GreenRoof            36.11      0.00      0.00      0.00      0.00      7.05     43.24       -0.18
  
  ******************
  Node Depth Summary
  ******************
  
  ---------------------------------------------------------------------------------
                                 Average  Maximum  Maximum  Time of Max    Reported
                                   Depth    Depth      HGL   Occurrence   Max Depth
  Node                 Type       Meters   Meters   Meters  days hr:min      Meters
  ---------------------------------------------------------------------------------
  WS02001211           JUNCTION     0.76     0.78     5.62     0  02:37        0.78
  WS02001212           JUNCTION     0.46     0.49     5.55     0  02:35        0.49
  WS02001213           JUNCTION     0.68     0.73     5.49     0  02:36        0.73
  WS02003059           JUNCTION     0.72     0.78     5.47     0  02:35        0.78
  WS02003060           JUNCTION     0.38     0.47     5.41     0  02:35        0.47
  WS02003066           JUNCTION     0.15     0.27     5.82     0  02:34        0.27
  WS02003067           JUNCTION     0.42     0.65     5.97     0  02:34        0.65
  WS02003069           JUNCTION     0.42     0.54     5.12     0  02:35        0.54
  WS02003072           JUNCTION     0.49     0.60     4.97     0  02:36        0.60
  WS02003073           JUNCTION     0.29     0.37     4.43     0  02:36        0.37
  WS02004138           JUNCTION     0.19     0.20     7.45     0  00:00        0.19
  WS02004139           JUNCTION     0.71     0.73     5.64     0  02:37        0.73
  WS02004401           JUNCTION     0.50     0.75     6.75     0  02:31        0.75
  WS02004402           JUNCTION     0.54     0.78     6.74     0  02:31        0.78
  WS02004403           JUNCTION     0.56     0.80     6.73     0  02:31        0.80
  WS02004404           JUNCTION     0.64     0.88     6.73     0  02:32        0.88
  WS02004405           JUNCTION     0.64     0.88     6.73     0  02:32        0.87
  WS02004406           JUNCTION     0.65     0.88     6.71     0  02:32        0.88
  WS02004407           JUNCTION     0.13     0.26     6.57     0  02:32        0.26
  WS02004409           JUNCTION     0.29     0.57     6.34     0  02:32        0.57
  WS02004410           JUNCTION     0.32     0.59     6.31     0  02:33        0.59
  WS02004411           JUNCTION     0.35     0.61     6.29     0  02:33        0.61
  WS02004412           JUNCTION     0.37     0.62     6.26     0  02:33        0.62
  WS02004413           JUNCTION     0.53     0.79     6.26     0  02:34        0.79
  WS02006109           JUNCTION     0.56     0.84     7.45     0  01:55        0.83
  WS02006110           JUNCTION     0.57     0.82     7.41     0  02:06        0.82
  WS02006111           JUNCTION     0.14     0.25     6.96     0  02:30        0.25
  WS02006112           JUNCTION     0.65     0.93     6.82     0  02:30        0.93
  WS02006113           JUNCTION     0.21     0.39     7.29     0  03:21        0.39
  WS02006115           JUNCTION     0.39     0.65     6.78     0  02:30        0.65
  WS02006116           JUNCTION     0.47     0.73     6.77     0  02:31        0.73
  WS02006228           JUNCTION     0.54     0.85     7.50     0  01:55        0.84
  WS02006229           JUNCTION     0.51     0.83     7.52     0  01:55        0.82
  WS02006230           JUNCTION     0.50     0.86     7.60     0  02:17        0.86
  WS02006231           JUNCTION     0.30     0.60     7.72     0  02:05        0.60
  WS02006232           JUNCTION     0.42     0.75     7.79     0  02:05        0.75
  WS02006234           JUNCTION     0.34     0.71     7.87     0  02:01        0.71
  WS02006235           JUNCTION     0.37     0.76     7.93     0  01:58        0.76
  WS02006238           JUNCTION     0.40     0.81     7.95     0  01:57        0.80
  WS02006239           JUNCTION     0.37     0.81     8.01     0  01:54        0.80
  WS02006240           JUNCTION     0.36     0.79     8.08     0  02:00        0.79
  WS02006242           JUNCTION     0.43     0.90     8.17     0  01:56        0.90
  WS02006243           JUNCTION     0.36     0.84     8.26     0  02:00        0.84
  WS02006245           JUNCTION     0.37     0.85     8.34     0  01:57        0.85
  WS02006247           JUNCTION     0.39     0.89     8.39     0  01:56        0.89
  WS02006248           JUNCTION     0.36     0.86     8.44     0  02:00        0.85
  WS02006249           JUNCTION     0.39     0.91     8.50     0  01:54        0.91
  WS02006251           JUNCTION     0.39     0.91     8.58     0  02:00        0.91
  WS02006252           JUNCTION     0.28     1.50     9.74     0  00:00        0.59
  WS02006256           JUNCTION     0.60     2.35     9.28     0  00:00        2.35
  WSF200               JUNCTION     0.12     0.25     5.48     0  02:34        0.25
  YS02001580           JUNCTION     0.05     1.05     9.59     0  01:49        0.74
  YS02001583           JUNCTION     0.08     1.14     9.64     0  01:50        0.79
  YS02001586           JUNCTION     0.13     1.13     9.30     0  01:49        1.12
  YS02001590           JUNCTION     0.21     1.40     9.26     0  01:48        1.35
  YS02001593           JUNCTION     0.15     1.46     9.32     0  01:48        1.26
  YS02001596           JUNCTION     0.22     1.80     9.22     0  01:48        1.64
  YS02001600           JUNCTION     0.29     1.87     9.00     0  01:48        1.87
  YS02001601           JUNCTION     0.53     2.06     8.90     0  01:48        2.06
  YS02001602           JUNCTION     0.45     1.87     8.77     0  01:50        1.87
  YS02001605           JUNCTION     0.42     1.78     8.68     0  01:50        1.78
  YS02001607           JUNCTION     0.42     1.68     8.53     0  01:50        1.65
  YS02001610           JUNCTION     0.46     1.68     8.48     0  01:50        1.68
  YS02001613           JUNCTION     0.42     1.70     8.54     0  01:50        1.63
  YS02001616           JUNCTION     0.36     1.61     8.52     0  01:50        1.54
  YS02001619           JUNCTION     0.34     1.61     8.54     0  01:50        1.49
  YS02001622           JUNCTION     0.35     1.62     8.52     0  01:50        1.48
  YS02001625           JUNCTION     0.60     1.78     8.38     0  01:50        1.72
  YS02001629           JUNCTION     0.63     1.85     8.40     0  01:50        1.73
  YS02001633           JUNCTION     0.71     1.86     8.31     0  01:50        1.77
  YS02001641           JUNCTION     0.69     1.57     8.00     0  01:55        1.57
  YS02001644           JUNCTION     0.69     1.49     7.92     0  01:55        1.49
  YS02001647           JUNCTION     0.50     1.17     7.78     0  01:54        1.15
  YS02001649           JUNCTION     0.68     1.24     7.63     0  01:54        1.21
  YS02001652           JUNCTION     0.50     1.14     7.74     0  01:54        1.02
  YS02001655           JUNCTION     0.29     0.76     7.61     0  01:55        0.74
  YS02001658           JUNCTION     0.06     0.46     7.60     0  01:55        0.41
  YS02001661           JUNCTION     0.11     0.33     7.73     0  01:51        0.33
  YS02001664           JUNCTION     0.04     0.23     8.16     0  01:51        0.23
  YS02001745           JUNCTION     0.04     0.21     7.73     0  01:50        0.21
  YS02001748           JUNCTION     0.10     0.37     7.45     0  01:56        0.37
  YS02001751           JUNCTION     0.26     0.58     7.46     0  01:56        0.54
  YS02001754           JUNCTION     0.48     0.85     7.46     0  01:56        0.80
  YS02001757           JUNCTION     0.78     1.18     7.44     0  01:55        1.15
  YS02001759           JUNCTION     0.69     1.11     7.47     0  01:55        1.07
  YS02001762           JUNCTION     0.66     1.09     7.49     0  01:55        1.04
  YS02001765           JUNCTION     0.62     1.06     7.51     0  01:55        0.99
  YS02001767           JUNCTION     0.59     0.99     7.48     0  01:55        0.96
  YS02001770           JUNCTION     0.59     1.00     7.50     0  01:55        1.00
  YS02001774           JUNCTION     0.65     1.09     7.51     0  01:54        1.07
  YS02001779           JUNCTION     0.42     0.82     7.51     0  01:55        0.81
  YS02001783           JUNCTION     0.46     1.70     7.84     0  01:54        1.46
  YS02001784           JUNCTION     0.52     1.66     7.73     0  01:54        1.39
  YS02001786           JUNCTION     0.53     1.72     7.75     0  01:54        1.25
  YS02001788           JUNCTION     0.55     1.63     7.61     0  01:54        1.12
  YS02001790           JUNCTION     0.81     1.69     7.34     0  01:54        1.28
  YS02001791           JUNCTION     0.93     2.72     8.19     0  01:54        2.72
  YS02001793           JUNCTION     1.42     3.60     8.43     0  01:54        3.60
  YS02001882           JUNCTION     0.24     1.64     8.35     0  01:54        1.56
  YS02001884           JUNCTION     0.33     1.73     8.35     0  01:54        1.66
  YS02001887           JUNCTION     0.40     1.79     8.33     0  01:54        1.74
  YS02001890           JUNCTION     0.43     1.81     8.32     0  01:54        1.77
  YS02001895           JUNCTION     0.21     1.58     8.33     0  01:54        1.52
  YS02001898           JUNCTION     0.22     1.59     8.32     0  01:54        1.53
  YS02001901           JUNCTION     0.33     1.69     8.30     0  01:54        1.65
  YS02001904           JUNCTION     0.31     1.65     8.28     0  01:54        1.62
  YS02001907           JUNCTION     0.62     1.96     8.25     0  01:54        1.96
  YS02001910           JUNCTION     0.42     1.80     8.31     0  01:55        1.77
  YS02001915           JUNCTION     0.24     1.62     8.34     0  01:55        1.59
  YS02001918           JUNCTION     0.11     1.33     8.40     0  01:55        1.28
  YS02001920           JUNCTION     0.19     1.42     8.43     0  01:55        1.36
  YS02001923           JUNCTION     0.08     1.19     8.45     0  01:55        1.12
  YS02001926           JUNCTION     0.11     1.10     8.54     0  01:55        0.95
  YS02001929           JUNCTION     0.05     0.75     8.45     0  01:55        0.75
  YS02006553           JUNCTION     0.63     2.02     8.31     0  01:54        1.95
  YS02006556           JUNCTION     0.60     2.05     8.36     0  01:54        1.91
  YS02006558           JUNCTION     0.64     2.10     8.37     0  01:54        1.94
  YS02006561           JUNCTION     0.12     1.29     7.95     0  01:54        1.06
  YS02163301           JUNCTION     0.65     1.91     8.43     0  01:50        1.74
  YS02163601           JUNCTION     0.74     1.74     8.14     0  01:53        1.72
  YS02164001           JUNCTION     0.68     1.61     8.07     0  01:55        1.60
  CC-1                 OUTFALL      0.00     0.00     0.00     0  00:00        0.00
  CC-2                 OUTFALL      0.00     0.00     0.00     0  00:00        0.00
  JK-1                 OUTFALL      0.00     0.00     0.00     0  00:00        0.00
  JK-2                 OUTFALL      0.00     0.00     0.00     0  00:00        0.00
  WSC                  OUTFALL      0.29     0.37     1.04     0  02:37        0.37
  CC-storage           STORAGE      1.42     1.74     7.24     0  02:45        1.74
  JK-storage           STORAGE      4.73     5.80     6.60     0  01:54        5.80
  XR-storage           STORAGE      0.26     5.00     3.00     0  00:00        4.91
  
  
  *******************
  Node Inflow Summary
  *******************
  
  -------------------------------------------------------------------------------------------------
                                  Maximum  Maximum                  Lateral       Total        Flow
                                  Lateral    Total  Time of Max      Inflow      Inflow     Balance
                                   Inflow   Inflow   Occurrence      Volume      Volume       Error
  Node                 Type           LPS      LPS  days hr:min    10^6 ltr    10^6 ltr     Percent
  -------------------------------------------------------------------------------------------------
  WS02001211           JUNCTION      7.35   389.13     0  03:33       0.212        11.1       0.353
  WS02001212           JUNCTION      0.00   390.85     0  03:36           0        11.1       0.212
  WS02001213           JUNCTION      0.00   392.60     0  03:35           0        11.1       0.246
  WS02003059           JUNCTION      0.00   395.65     0  03:35           0          11       0.340
  WS02003060           JUNCTION     16.53   816.03     0  02:34       0.476        14.6       0.176
  WS02003066           JUNCTION      0.00   411.85     0  02:34           0        3.12       0.090
  WS02003067           JUNCTION      0.00   411.85     0  02:34           0        3.12       0.204
  WS02003069           JUNCTION      0.32   816.34     0  02:35     0.00922        14.6       0.191
  WS02003072           JUNCTION      0.00   816.34     0  02:35           0        14.5       0.240
  WS02003073           JUNCTION      1.82   818.16     0  02:36      0.0524        14.5       0.269
  WS02004138           JUNCTION      0.00   380.00     0  00:00           0        10.9       0.059
  WS02004139           JUNCTION      0.32   395.52     0  00:00     0.00924        10.9       0.411
  WS02004401           JUNCTION      0.00   412.12     0  02:07           0        3.28       0.454
  WS02004402           JUNCTION      0.00   412.05     0  02:07           0        3.27       0.445
  WS02004403           JUNCTION      0.00   411.96     0  02:31           0        3.25       0.422
  WS02004404           JUNCTION      0.16   412.08     0  02:31     0.00467        3.24       0.334
  WS02004405           JUNCTION      0.04   412.08     0  02:08      0.0011        3.23       0.500
  WS02004406           JUNCTION      0.00   412.14     0  02:32           0        3.22       0.831
  WS02004407           JUNCTION      0.00   411.99     0  02:32           0        3.19       0.123
  WS02004409           JUNCTION      0.00   411.95     0  02:32           0        3.19       0.271
  WS02004410           JUNCTION      0.00   411.91     0  02:33           0        3.18       0.331
  WS02004411           JUNCTION      0.00   411.90     0  02:33           0        3.17       0.359
  WS02004412           JUNCTION      0.00   411.87     0  02:33           0        3.16       0.415
  WS02004413           JUNCTION      0.00   411.87     0  02:34           0        3.14       0.664
  WS02006109           JUNCTION      1.23   411.98     0  01:55      0.0354        3.36       0.347
  WS02006110           JUNCTION      0.00   411.74     0  02:07           0        3.34       0.363
  WS02006111           JUNCTION      0.00   424.09     0  03:21           0        3.33       0.076
  WS02006112           JUNCTION      0.00   414.05     0  02:30           0        3.32       0.695
  WS02006113           JUNCTION      0.00   411.96     0  02:30           0        3.33       0.150
  WS02006115           JUNCTION      0.00   412.49     0  02:06           0         3.3       0.361
  WS02006116           JUNCTION      0.00   412.26     0  02:07           0        3.29       0.293
  WS02006228           JUNCTION      0.00   412.30     0  01:55           0        3.33       0.176
  WS02006229           JUNCTION      0.00   410.51     0  02:07           0        3.33       0.247
  WS02006230           JUNCTION     10.28   410.52     0  02:01       0.296        3.34       0.242
  WS02006231           JUNCTION      0.00   400.31     0  02:05           0        3.05       0.074
  WS02006232           JUNCTION      0.00   400.30     0  02:01           0        3.07       0.546
  WS02006234           JUNCTION      0.00   401.07     0  01:58           0        3.06      -0.077
  WS02006235           JUNCTION      0.00   401.65     0  01:59           0        3.09       0.447
  WS02006238           JUNCTION      0.00   400.90     0  02:00           0        3.06      -0.302
  WS02006239           JUNCTION      0.00   400.84     0  02:01           0        3.06      -0.003
  WS02006240           JUNCTION      0.00   400.96     0  01:57           0        3.06       0.187
  WS02006242           JUNCTION      0.00   400.77     0  01:54           0        3.07       0.451
  WS02006243           JUNCTION      0.00   400.64     0  02:00           0        3.07       0.265
  WS02006245           JUNCTION      0.00   400.96     0  01:57           0         3.1       0.930
  WS02006247           JUNCTION      0.00   401.23     0  01:54           0        3.11       0.339
  WS02006248           JUNCTION      0.00   400.91     0  07:32           0        3.13       0.365
  WS02006249           JUNCTION      0.00   471.29     0  07:57           0        3.16       0.963
  WS02006251           JUNCTION      0.08   403.80     0  07:56     0.00222        3.17       0.266
  WS02006252           JUNCTION      0.00   400.00     0  00:00           0        3.16      -0.071
  WS02006256           JUNCTION      0.00   300.00     0  00:00           0      0.0243      -5.606
  WSF200               JUNCTION      0.00   411.85     0  02:34           0        3.11       0.074
  YS02001580           JUNCTION      0.00   184.17     0  01:49           0     0.00453      -4.940
  YS02001583           JUNCTION      0.00   271.53     0  01:50           0      0.0146     -10.935
  YS02001586           JUNCTION    306.67   307.32     0  01:54       0.727       0.738       0.215
  YS02001590           JUNCTION      0.00   307.23     0  01:53           0       0.723      -0.051
  YS02001593           JUNCTION      0.00   306.94     0  01:53           0       0.724       0.001
  YS02001596           JUNCTION      0.00   307.03     0  01:53           0       0.724      -0.009
  YS02001600           JUNCTION      0.00   307.00     0  01:53           0       0.724      -0.037
  YS02001601           JUNCTION    576.79   878.16     0  01:52        1.01        1.73       0.113
  YS02001602           JUNCTION      0.00   583.66     0  01:49           0        1.47       0.119
  YS02001605           JUNCTION      0.00   583.73     0  01:49           0        1.45       0.169
  YS02001607           JUNCTION      0.00   583.44     0  01:49           0        1.46       0.304
  YS02001610           JUNCTION      0.00   557.16     0  01:49           0        1.45       0.317
  YS02001613           JUNCTION      0.00   518.48     0  01:49           0        1.45       0.273
  YS02001616           JUNCTION      0.00   499.40     0  02:05           0        1.45       0.143
  YS02001619           JUNCTION    525.78   917.69     0  01:52        1.11        2.55       0.060
  YS02001622           JUNCTION      0.00   916.99     0  01:52           0        2.55       0.137
  YS02001625           JUNCTION      0.00   917.10     0  01:52           0        2.54       0.909
  YS02001629           JUNCTION      0.00   916.29     0  01:52           0        2.52       0.107
  YS02001633           JUNCTION    435.65  1351.15     0  01:52       0.752        3.26       0.619
  YS02001641           JUNCTION      0.00  1351.15     0  01:51           0        3.22       0.436
  YS02001644           JUNCTION    376.04  1725.61     0  01:51       0.614        3.82       0.433
  YS02001647           JUNCTION      0.00  1726.44     0  01:52           0         3.8       0.346
  YS02001649           JUNCTION      0.00  2094.82     0  01:52           0        4.36       0.588
  YS02001652           JUNCTION      0.00   456.87     0  01:51           0       0.583       1.324
  YS02001655           JUNCTION      0.15   396.42     0  01:51     0.00443       0.582       0.988
  YS02001658           JUNCTION      0.00   376.94     0  01:51           0       0.574      -0.048
  YS02001661           JUNCTION      0.00   377.43     0  01:51           0       0.574       0.050
  YS02001664           JUNCTION    377.63   377.63     0  01:51       0.574       0.574      -0.007
  YS02001745           JUNCTION    246.19   246.19     0  01:50       0.338       0.338       0.316
  YS02001748           JUNCTION      0.04   246.65     0  01:50      0.0013       0.343      -0.217
  YS02001751           JUNCTION      0.01   256.10     0  01:56    0.000317       0.352       1.380
  YS02001754           JUNCTION      0.26   259.24     0  01:52     0.00749       0.372       2.256
  YS02001757           JUNCTION      0.00  2850.43     0  01:52           0        5.84       1.403
  YS02001759           JUNCTION    351.83   675.76     0  01:55       0.491        1.18       1.437
  YS02001762           JUNCTION      0.00   428.28     0  01:56           0       0.704       2.124
  YS02001765           JUNCTION      0.00   423.54     0  01:56           0       0.714       2.210
  YS02001767           JUNCTION      0.54   443.01     0  01:55      0.0154        0.73       2.989
  YS02001770           JUNCTION    483.33   483.33     0  01:51       0.732       0.782       2.339
  YS02001774           JUNCTION      0.00   140.14     0  01:51           0      0.0908      21.184
  YS02001779           JUNCTION      0.01    75.85     0  01:54    0.000144       0.034      21.712
  YS02001783           JUNCTION      0.00  1088.00     0  01:54           0        2.21       0.314
  YS02001784           JUNCTION      1.06  1089.02     0  01:54      0.0305        2.23       0.485
  YS02001786           JUNCTION      0.06  1089.82     0  01:54     0.00162        2.23       0.614
  YS02001788           JUNCTION      0.07  1092.27     0  01:54     0.00204        2.21       0.597
  YS02001790           JUNCTION      0.15  1073.70     0  01:53     0.00446        2.21       0.778
  YS02001791           JUNCTION      0.00  1138.85     0  01:53           0        2.19       0.649
  YS02001793           JUNCTION      0.00  1062.99     0  01:52           0        2.17       0.738
  YS02001882           JUNCTION      0.00    56.50     0  01:51           0      0.0127       5.038
  YS02001884           JUNCTION      0.00    99.92     0  01:50           0      0.0492       5.185
  YS02001887           JUNCTION    396.63   415.55     0  01:51        0.52       0.554       0.789
  YS02001890           JUNCTION      0.00   427.67     0  01:51           0       0.512       0.992
  YS02001895           JUNCTION      0.00   434.84     0  01:51           0       0.507       0.307
  YS02001898           JUNCTION      0.00   397.59     0  01:51           0       0.506       0.080
  YS02001901           JUNCTION      0.00   398.09     0  01:51           0       0.508       0.639
  YS02001904           JUNCTION      0.00   398.34     0  01:51           0       0.515       0.544
  YS02001907           JUNCTION      0.00   858.12     0  01:56           0        1.58       1.116
  YS02001910           JUNCTION      0.00   624.60     0  01:56           0        1.07       0.650
  YS02001915           JUNCTION    387.48   623.63     0  01:56       0.631        1.09       0.122
  YS02001918           JUNCTION      0.00   310.50     0  01:56           0       0.465       0.012
  YS02001920           JUNCTION      2.87   309.65     0  01:56      0.0827       0.451       0.102
  YS02001923           JUNCTION      0.04   349.18     0  01:56     0.00109       0.363      -0.212
  YS02001926           JUNCTION      0.05   282.90     0  01:55      0.0015       0.359       0.109
  YS02001929           JUNCTION    192.60   192.60     0  01:52       0.355       0.355      -0.007
  YS02006553           JUNCTION      0.00   700.09     0  01:53           0        1.54       0.773
  YS02006556           JUNCTION      0.00   699.82     0  01:53           0        1.55       0.536
  YS02006558           JUNCTION    480.14  1120.02     0  01:53       0.717        2.24       0.158
  YS02006561           JUNCTION      0.00  1120.07     0  01:53           0        2.21      -0.012
  YS02163301           JUNCTION      0.00   916.42     0  01:52           0        2.52       0.542
  YS02163601           JUNCTION      0.11  1351.20     0  01:52     0.00317        3.24       0.640
  YS02164001           JUNCTION      0.00  1351.55     0  01:52           0        3.23       0.401
  CC-1                 OUTFALL       0.00   683.00     0  00:00           0       0.208       0.000
  CC-2                 OUTFALL       0.00   683.00     0  00:00           0       0.208       0.000
  JK-1                 OUTFALL       0.00  1000.00     0  00:00           0      0.0791       0.000
  JK-2                 OUTFALL       0.00  1000.00     0  00:00           0      0.0791       0.000
  WSC                  OUTFALL       0.00   818.15     0  02:37           0        14.5       0.000
  CC-storage           STORAGE       0.00  2684.29     0  01:55           0        7.94       0.267
  JK-storage           STORAGE       0.00   989.59     0  01:54           0        2.31       0.713
  XR-storage           STORAGE     200.00   200.00     0  00:00        5.76        6.36     -41.886
  
  
  **********************
  Node Surcharge Summary
  **********************
  
  Surcharging occurs when water rises above the top of the highest conduit.
  ---------------------------------------------------------------------
                                               Max. Height   Min. Depth
                                   Hours       Above Crown    Below Rim
  Node                 Type      Surcharged         Meters       Meters
  ---------------------------------------------------------------------
  WS02006109           JUNCTION        1.52          0.016        1.804
  WS02006228           JUNCTION        1.51          0.020        2.180
  WS02006229           JUNCTION        1.53          0.030        2.420
  WS02006232           JUNCTION        1.58          0.050        1.430
  WS02006235           JUNCTION        1.53          0.053        1.237
  WS02006238           JUNCTION        1.55          0.087        1.343
  WS02006239           JUNCTION        1.54          0.065        1.225
  WS02006240           JUNCTION        1.54          0.077        1.313
  WS02006242           JUNCTION        1.61          0.173        0.647
  WS02006243           JUNCTION        1.55          0.131        0.639
  WS02006245           JUNCTION        1.55          0.143        0.707
  WS02006247           JUNCTION        1.57          0.180        0.580
  WS02006248           JUNCTION        1.54          0.137        0.243
  WS02006249           JUNCTION        1.56          0.207        0.183
  WS02006252           JUNCTION        2.07          1.100        0.000
  WS02006256           JUNCTION        3.48          2.050        0.000
  YS02001580           JUNCTION        0.19          0.450        0.000
  YS02001583           JUNCTION        0.19          0.500        0.000
  YS02001586           JUNCTION        0.33          0.510        0.000
  YS02001590           JUNCTION        0.39          0.750        0.000
  YS02001593           JUNCTION        0.39          0.840        0.000
  YS02001596           JUNCTION        0.46          1.070        0.000
  YS02001600           JUNCTION        0.56          1.190        0.000
  YS02001601           JUNCTION        0.87          1.440        0.000
  YS02001602           JUNCTION        0.76          1.270        0.000
  YS02001605           JUNCTION        0.72          1.180        0.000
  YS02001607           JUNCTION        0.34          0.680        0.000
  YS02001610           JUNCTION        0.36          0.680        0.000
  YS02001613           JUNCTION        0.33          0.700        0.000
  YS02001616           JUNCTION        0.29          0.610        0.000
  YS02001619           JUNCTION        0.28          0.610        0.000
  YS02001622           JUNCTION        0.27          0.620        0.000
  YS02001625           JUNCTION        0.44          0.780        0.000
  YS02001629           JUNCTION        0.21          0.470        0.000
  YS02001633           JUNCTION        0.46          0.836        0.224
  YS02001641           JUNCTION        0.39          0.567        0.533
  YS02001644           JUNCTION        0.35          0.491        0.429
  YS02001647           JUNCTION        0.11          0.170        0.730
  YS02001649           JUNCTION        0.21          0.242        0.808
  YS02001652           JUNCTION        0.01          0.113        1.017
  YS02001757           JUNCTION        0.32          0.178        1.032
  YS02001759           JUNCTION        0.11          0.106        1.104
  YS02001762           JUNCTION        0.06          0.092        1.058
  YS02001765           JUNCTION        0.01          0.056        1.044
  YS02001774           JUNCTION        0.08          0.093        0.957
  YS02001783           JUNCTION        0.36          0.902        0.698
  YS02001784           JUNCTION        0.37          0.858        0.632
  YS02001786           JUNCTION        0.32          0.919        0.511
  YS02001788           JUNCTION        0.31          0.830        0.650
  YS02001790           JUNCTION        6.10          0.894        0.263
  YS02001791           JUNCTION        6.10          1.920        0.000
  YS02001793           JUNCTION        6.11          2.600        0.000
  YS02001882           JUNCTION        0.23          0.637        0.193
  YS02001884           JUNCTION        0.24          0.669        0.201
  YS02001887           JUNCTION        0.27          0.744        0.206
  YS02001890           JUNCTION        0.28          0.760        0.000
  YS02001895           JUNCTION        0.22          0.578        0.172
  YS02001898           JUNCTION        0.21          0.558        0.182
  YS02001901           JUNCTION        0.26          0.694        0.176
  YS02001904           JUNCTION        0.25          0.648        0.202
  YS02001907           JUNCTION        0.41          0.950        0.000
  YS02001910           JUNCTION        0.30          0.800        0.300
  YS02001915           JUNCTION        0.23          0.620        0.380
  YS02001918           JUNCTION        0.12          0.332        0.478
  YS02001920           JUNCTION        0.14          0.424        0.716
  YS02001926           JUNCTION        0.01          0.095        0.805
  YS02006553           JUNCTION        0.42          1.021        0.169
  YS02006556           JUNCTION        0.36          1.010        0.340
  YS02006558           JUNCTION        0.35          0.999        0.401
  YS02006561           JUNCTION        0.15          0.489        0.661
  YS02163301           JUNCTION        0.44          0.909        0.121
  YS02163601           JUNCTION        0.49          0.738        0.342
  YS02164001           JUNCTION        0.41          0.609        0.491
  
  
  *********************
  Node Flooding Summary
  *********************
  
  Flooding refers to all water that overflows a node, whether it ponds or not.
  --------------------------------------------------------------------------
                                                             Total   Maximum
                                 Maximum   Time of Max       Flood    Ponded
                        Hours       Rate    Occurrence      Volume     Depth
  Node                 Flooded       LPS   days hr:min    10^6 ltr    Meters
  --------------------------------------------------------------------------
  WS02006252              0.01    245.63      0  00:00       0.000     0.000
  WS02006256              0.02    293.19      0  00:00       0.005     0.000
  YS02001580              0.01     89.37      0  01:49       0.001     0.000
  YS02001583              0.01    180.03      0  01:50       0.000     0.000
  YS02001586              0.02    123.70      0  01:50       0.003     0.000
  YS02001590              0.01     87.11      0  01:48       0.000     0.000
  YS02001593              0.01     85.58      0  01:48       0.000     0.000
  YS02001596              0.01      4.48      0  01:48       0.000     0.000
  YS02001600              0.01     10.07      0  01:48       0.000     0.000
  YS02001601              0.26    479.43      0  01:52       0.269     0.000
  YS02001602              0.14     54.38      0  01:55       0.014     0.000
  YS02001605              0.01      5.44      0  01:50       0.000     0.000
  YS02001607              0.01     16.88      0  01:50       0.000     0.000
  YS02001610              0.02     89.64      0  01:50       0.001     0.000
  YS02001613              0.01     43.78      0  01:50       0.000     0.000
  YS02001616              0.01     34.00      0  01:50       0.000     0.000
  YS02001619              0.01    101.44      0  01:50       0.000     0.000
  YS02001622              0.01    125.64      0  01:50       0.000     0.000
  YS02001625              0.01    128.47      0  01:50       0.001     0.000
  YS02001629              0.01    241.11      0  01:50       0.001     0.000
  YS02001791              0.01     13.13      0  01:54       0.000     0.000
  YS02001793              0.01     31.17      0  01:54       0.000     0.000
  YS02001890              0.01     18.70      0  01:54       0.000     0.000
  YS02001907              0.06    233.64      0  01:56       0.027     0.000
  JK-storage              6.10    989.15      0  01:54       1.819     0.000
  
  
  **********************
  Storage Volume Summary
  **********************
  
  ------------------------------------------------------------------------------------------------
                         Average    Avg   Evap  Exfil     Maximum    Max    Time of Max    Maximum
                          Volume   Pcnt   Pcnt   Pcnt      Volume   Pcnt     Occurrence    Outflow
  Storage Unit           1000 m³   Full   Loss   Loss     1000 m³   Full    days hr:min        LPS
  ------------------------------------------------------------------------------------------------
  CC-storage               3.949   61.6    0.0    0.0       4.835   75.4       0  02:45    1783.53
  JK-storage               0.238   81.6    0.0    0.0       0.291  100.0       0  01:54    2300.00
  XR-storage               0.031    2.2    0.0    0.0       0.600   41.7       0  00:00     380.00
  
  
  ***********************
  Outfall Loading Summary
  ***********************
  
  -----------------------------------------------------------
                         Flow       Avg       Max       Total
                         Freq      Flow      Flow      Volume
  Outfall Node           Pcnt       LPS       LPS    10^6 ltr
  -----------------------------------------------------------
  CC-1                   1.14    683.00    683.00       0.208
  CC-2                   1.14    683.00    683.00       0.208
  JK-1                   1.06    347.46   1000.00       0.079
  JK-2                   1.06    347.46   1000.00       0.079
  WSC                   99.93    544.49    818.15      14.507
  -----------------------------------------------------------
  System                20.87   2605.41   3366.35      15.082
  
  
  ********************
  Link Flow Summary
  ********************
  
  -----------------------------------------------------------------------------
                                 Maximum  Time of Max   Maximum    Max/    Max/
                                  |Flow|   Occurrence   |Veloc|    Full    Full
  Link                 Type          LPS  days hr:min     m/sec    Flow   Depth
  -----------------------------------------------------------------------------
  1                    CONDUIT    818.15     0  02:37      3.15    0.28    0.37
  WS02001211WS02001212 CONDUIT    390.85     0  03:36      0.78    0.30    0.64
  WS02001212WS02001213 CONDUIT    392.60     0  03:35      1.32    0.61    0.45
  WS02001213WS02003059 CONDUIT    395.65     0  03:35      0.85    0.65    0.75
  WS02003059WS02003060 CONDUIT    399.94     0  03:35      0.95    0.26    0.63
  WS02003060WS02003069 CONDUIT    816.02     0  02:35      1.80    0.32    0.42
  WS02003066WSF200     CONDUIT    411.85     0  02:34      2.69    0.07    0.19
  WS02003067WS02003066 CONDUIT    411.85     0  02:34      1.04    0.13    0.38
  WS02003069WS02003072 CONDUIT    816.34     0  02:35      1.55    0.39    0.47
  WS02003072WS02003073 CONDUIT    816.34     0  02:36      1.64    1.76    0.45
  WS02004138WS02004139 CONDUIT    395.20     0  00:00      3.65    0.08    0.43
  WS02004139WS02001211 CONDUIT    381.78     0  03:33      0.91    0.48    0.59
  WS02004401WS02004402 CONDUIT    412.05     0  02:07      0.99    0.49    0.77
  WS02004402WS02004403 CONDUIT    411.96     0  02:31      0.99    0.59    0.79
  WS02004403WS02004404 CONDUIT    411.91     0  02:31      0.93    0.30    0.84
  WS02004404WS02004405 CONDUIT    412.04     0  02:08      1.10    4.04    0.88
  WS02004405WS02004406 CONDUIT    412.14     0  02:32      1.03    0.81    0.88
  WS02004406WS02004407 CONDUIT    411.99     0  02:32      0.89    0.18    0.57
  WS02004407WS02004409 CONDUIT    411.95     0  02:32      1.42    0.15    0.42
  WS02004409WS02004410 CONDUIT    411.91     0  02:33      0.92    0.53    0.58
  WS02004410WS02004411 CONDUIT    411.90     0  02:33      0.86    0.56    0.60
  WS02004411WS02004412 CONDUIT    411.87     0  02:33      0.81    0.59    0.61
  WS02004412WS02004413 CONDUIT    411.87     0  02:34      0.70    0.28    0.70
  WS02004413WS02003067 CONDUIT    411.85     0  02:34      0.96    0.18    0.53
  WS02006109WS02006110 CONDUIT    411.74     0  02:07      0.84    0.79    0.94
  WS02006110WS02006113 CONDUIT    411.96     0  02:30      1.03    0.37    0.75
  WS02006111WS02006112 CONDUIT    414.05     0  02:30      1.83    0.20    0.65
  WS02006112WS02006115 CONDUIT    412.49     0  02:06      0.71    0.24    0.78
  WS02006113WS02006111 CONDUIT    424.09     0  03:21      2.25    0.51    0.40
  WS02006115WS02006116 CONDUIT    412.26     0  02:07      0.98    0.53    0.66
  WS02006116WS02004401 CONDUIT    412.12     0  02:07      1.00    0.57    0.74
  WS02006228WS02006109 CONDUIT    410.75     0  01:55      1.06    1.79    1.00
  WS02006229WS02006228 CONDUIT    412.30     0  01:55      1.13    1.37    1.00
  WS02006230WS02006229 CONDUIT    410.51     0  02:07      1.22    9.14    1.00
  WS02006231WS02006230 CONDUIT    400.24     0  02:01      1.37    6.07    0.77
  WS02006232WS02006231 CONDUIT    400.31     0  02:05      1.08    0.84    0.92
  WS02006234WS02006232 CONDUIT    400.30     0  02:01      1.40    0.81    1.00
  WS02006235WS02006234 CONDUIT    401.07     0  01:58      1.29    4.23    0.99
  WS02006238WS02006235 CONDUIT    401.65     0  01:59      1.48    0.90    1.00
  WS02006239WS02006238 CONDUIT    400.90     0  02:00      1.21    1.28    1.00
  WS02006240WS02006239 CONDUIT    400.84     0  02:01      1.31    1.26    1.00
  WS02006242WS02006240 CONDUIT    400.96     0  01:57      1.17    1.59    1.00
  WS02006243WS02006242 CONDUIT    400.77     0  01:54      1.42    0.86    1.00
  WS02006245WS02006243 CONDUIT    400.64     0  02:00      1.45    1.18    1.00
  WS02006247WS02006245 CONDUIT    400.96     0  01:57      1.43    3.18    1.00
  WS02006248WS02006247 CONDUIT    401.23     0  01:54      1.44    0.87    1.00
  WS02006249WS02006248 CONDUIT    400.91     0  07:32      1.40    2.20    1.00
  WS02006251WS02006249 CONDUIT    471.29     0  07:57      1.99    1.36    1.00
  WS02006252WS02006251 CONDUIT    403.72     0  07:56     24.55    1.48    1.00
  WS02006256WS02006235 CONDUIT    288.91     0  00:00      4.23    3.06    1.00
  WSF200WS02003060     CONDUIT    411.84     0  02:34      1.43    0.09    0.30
  YS02001580YS02001583 CONDUIT    184.17     0  01:49      0.93    0.71    1.00
  YS02001583YS02001586 CONDUIT    199.70     0  01:49      0.93    0.30    1.00
  YS02001586YS02001590 CONDUIT    307.23     0  01:53      1.32    0.54    1.00
  YS02001590YS02001593 CONDUIT    306.94     0  01:53      1.09    1.93    1.00
  YS02001593YS02001596 CONDUIT    307.03     0  01:53      1.70    0.48    1.00
  YS02001596YS02001600 CONDUIT    307.00     0  01:53      1.11    0.60    1.00
  YS02001600YS02001601 CONDUIT    306.90     0  01:53      1.09    0.53    1.00
  YS02001601YS02001602 CONDUIT    583.66     0  01:49      2.06    2.11    1.00
  YS02001602YS02001605 CONDUIT    583.73     0  01:49      2.06   12.35    1.00
  YS02001605YS02001607 CONDUIT    583.44     0  01:49      2.06    3.20    1.00
  YS02001607YS02001610 CONDUIT    557.16     0  01:49      0.74    0.53    1.00
  YS02001610YS02001613 CONDUIT    518.48     0  01:49      0.70    0.60    1.00
  YS02001613YS02001616 CONDUIT    499.40     0  02:05      0.69    0.43    1.00
  YS02001616YS02001619 CONDUIT    499.29     0  02:05      0.65    0.87    1.00
  YS02001619YS02001622 CONDUIT    916.99     0  01:52      1.35    1.35    1.00
  YS02001622YS02001625 CONDUIT    917.10     0  01:52      1.17    0.49    1.00
  YS02001625YS02001629 CONDUIT    916.29     0  01:52      1.17    0.44    1.00
  YS02001629YS02163301 CONDUIT    916.42     0  01:52      1.17    1.13    1.00
  YS02001633YS02163601 CONDUIT   1351.09     0  01:52      1.72    1.42    1.00
  YS02001641YS02001644 CONDUIT   1349.64     0  01:51      1.72    4.36    1.00
  YS02001644YS02001647 CONDUIT   1726.44     0  01:52      2.27    1.01    1.00
  YS02001647YS02001649 CONDUIT   1743.22     0  01:51      2.37    0.92    1.00
  YS02001649YS02001757 CONDUIT   2093.83     0  01:52      2.68    1.27    1.00
  YS02001652YS02001649 CONDUIT    458.79     0  01:52      0.83    0.23    1.00
  YS02001655YS02001652 CONDUIT    456.87     0  01:51      1.61    0.22    0.87
  YS02001658YS02001655 CONDUIT    396.27     0  01:51      2.06    0.17    0.59
  YS02001661YS02001658 CONDUIT    376.94     0  01:51      2.24    0.15    0.35
  YS02001664YS02001661 CONDUIT    377.43     0  01:51      2.08    0.12    0.28
  YS02001745YS02001748 CONDUIT    246.60     0  01:50      2.08    0.09    0.23
  YS02001748YS02001751 CONDUIT    256.09     0  01:56      1.75    0.13    0.45
  YS02001751YS02001754 CONDUIT    258.98     0  01:52      1.65    0.12    0.68
  YS02001754YS02001757 CONDUIT    275.38     0  01:56      0.62    0.11    0.93
  YS02001757CaochengTiaoxuchi CONDUIT   2684.29     0  01:55      3.72    1.16    1.00
  YS02001759YS02001757 CONDUIT    675.29     0  01:55      1.04    0.48    1.00
  YS02001762YS02001759 CONDUIT    428.89     0  01:56      0.57    0.49    1.00
  YS02001765YS02001762 CONDUIT    428.28     0  01:56      0.73    0.40    1.00
  YS02001767YS02001765 CONDUIT    423.54     0  01:56      0.88    0.53    1.00
  YS02001770YS02001767 CONDUIT    442.48     0  01:55      0.93    1.75    0.99
  YS02001774YS02001770 CONDUIT    140.14     0  01:51      0.22    0.09    0.99
  YS02001779YS02001774 CONDUIT     75.84     0  01:54      0.14    0.04    0.91
  YS02001783YS02001784 CONDUIT   1087.96     0  01:54      2.16    1.50    1.00
  YS02001784YS02001785 CONDUIT   1089.77     0  01:54      2.17    2.54    1.00
  YS02001786YS02001788 CONDUIT   1092.20     0  01:54      2.34    2.10    1.00
  YS02001788YS02001790 CONDUIT   1073.55     0  01:53      2.58    0.79    1.00
  YS02001790YS02001791 CONDUIT   1138.85     0  01:53      3.28    1.24    1.00
  YS02001791YS02001793 CONDUIT   1062.99     0  01:52      6.18    0.46    1.00
  YS02001793JiankangQianchi CONDUIT    989.59     0  01:54      1.99    0.08    1.00
  YS02001882YS02001884 CONDUIT     56.50     0  01:51      0.11    0.06    1.00
  YS02001884YS02001887 CONDUIT     99.92     0  01:50      0.13    0.13    1.00
  YS02001887YS02001890 CONDUIT    427.67     0  01:51      0.54    0.73    1.00
  YS02001890YS02001895 CONDUIT    434.84     0  01:51      0.55    0.20    1.00
  YS02001895YS02001898 CONDUIT    397.59     0  01:51      0.51    0.69    1.00
  YS02001898YS02001901 CONDUIT    398.09     0  01:51      0.51    0.26    1.00
  YS02001901YS02001904 CONDUIT    398.34     0  01:51      0.51    0.62    1.00
  YS02001904YS02001907 CONDUIT    397.66     0  01:51      0.51    0.14    1.00
  YS02001907YS02006553 CONDUIT    700.09     0  01:53      0.78    0.82    1.00
  YS02001910YS02001907 CONDUIT    624.84     0  01:56      0.80    0.35    1.00
  YS02001915YS02001910 CONDUIT    624.60     0  01:56      0.80    0.31    1.00
  YS02001918YS02001915 CONDUIT    310.19     0  01:56      0.44    0.17    1.00
  YS02001920YS02001918 CONDUIT    310.50     0  01:56      0.69    0.30    1.00
  YS02001923YS02001920 CONDUIT    306.78     0  01:56      0.85    0.14    1.00
  YS02001926YS02001923 CONDUIT    349.14     0  01:56      0.97    0.50    0.96
  YS02001929YS02001926 CONDUIT    282.84     0  01:55      1.08    0.13    0.87
  YS02006553YS02006556 CONDUIT    699.82     0  01:53      0.89    0.60    1.00
  YS02006556YS02006558 CONDUIT    700.83     0  01:53      0.89    0.55    1.00
  YS02006558YS02006561 CONDUIT   1120.07     0  01:53      3.96    2.48    1.00
  YS02006561YS02001783 CONDUIT   1088.00     0  01:54      2.27    0.56    1.00
  YS02163301YS02001633 CONDUIT    915.86     0  01:52      1.17    0.86    1.00
  YS02163601YS02164001 CONDUIT   1351.55     0  01:52      1.72    1.20    1.00
  YS02164001YS02001641 CONDUIT   1351.15     0  01:51      1.72    1.84    1.00
  CC-R1                PUMP       683.00     0  00:00              1.00
  CC-R2                PUMP       683.00     0  00:00              1.00
  CC-S1                PUMP       200.00     0  00:00              1.00
  CC-S2                PUMP       200.00     0  00:00              1.00
  JK-R1                PUMP      1000.00     0  00:00              1.00
  JK-R2                PUMP      1000.00     0  00:00              1.00
  JK-S                 PUMP       300.00     0  00:00              1.00
  XR-1                 PUMP        95.00     0  00:00              1.00
  XR-2                 PUMP        95.00     0  00:00              1.00
  XR-3                 PUMP        95.00     0  00:00              1.00
  XR-4                 PUMP        95.00     0  00:00              1.00
  
  
  ***************************
  Flow Classification Summary
  ***************************
  
  -------------------------------------------------------------------------------------
                      Adjusted    ---------- Fraction of Time in Flow Class ---------- 
                       /Actual         Up    Down  Sub   Sup   Up    Down  Norm  Inlet 
  Conduit               Length    Dry  Dry   Dry   Crit  Crit  Crit  Crit  Ltd   Ctrl  
  -------------------------------------------------------------------------------------
  1                       1.00   0.00  0.00  0.00  0.00  1.00  0.00  0.00  0.20  0.00
  WS02001211WS02001212    1.00   0.00  0.00  0.00  1.00  0.00  0.00  0.00  0.00  0.00
  WS02001212WS02001213    1.00   0.00  0.00  0.00  0.38  0.00  0.61  0.00  0.00  0.00
  WS02001213WS02003059    1.00   0.00  0.00  0.00  0.99  0.00  0.00  0.00  0.00  0.00
  WS02003059WS02003060    1.00   0.00  0.00  0.00  1.00  0.00  0.00  0.00  0.00  0.00
  WS02003060WS02003069    1.00   0.00  0.00  0.00  0.99  0.01  0.00  0.00  0.00  0.00
  WS02003066WSF200        1.00   0.02  0.10  0.00  0.00  0.88  0.00  0.00  0.86  0.00
  WS02003067WS02003066    1.00   0.10  0.02  0.00  0.89  0.00  0.00  0.00  0.00  0.00
  WS02003069WS02003072    1.00   0.00  0.00  0.00  0.99  0.01  0.00  0.00  0.00  0.00
  WS02003072WS02003073    1.00   0.00  0.00  0.00  0.00  0.00  0.00  1.00  0.00  0.00
  WS02004138WS02004139    1.00   0.00  0.00  0.00  0.99  0.01  0.00  0.00  1.00  0.00
  WS02004139WS02001211    1.00   0.00  0.00  0.00  1.00  0.00  0.00  0.00  0.00  0.00
  WS02004401WS02004402    1.00   0.02  0.00  0.00  0.98  0.00  0.00  0.00  0.00  0.00
  WS02004402WS02004403    1.00   0.02  0.00  0.00  0.98  0.00  0.00  0.00  0.00  0.00
  WS02004403WS02004404    1.00   0.00  0.03  0.00  0.97  0.00  0.00  0.00  0.00  0.00
  WS02004404WS02004405    1.00   0.00  0.00  0.00  1.00  0.00  0.00  0.00  0.00  0.00
  WS02004405WS02004406    1.00   0.00  0.00  0.00  1.00  0.00  0.00  0.00  0.00  0.00
  WS02004406WS02004407    1.00   0.00  0.05  0.00  0.95  0.00  0.00  0.00  0.00  0.00
  WS02004407WS02004409    1.00   0.05  0.00  0.00  0.94  0.01  0.00  0.00  0.94  0.00
  WS02004409WS02004410    1.00   0.05  0.00  0.00  0.95  0.00  0.00  0.00  0.02  0.00
  WS02004410WS02004411    1.00   0.05  0.00  0.00  0.95  0.00  0.00  0.00  0.00  0.00
  WS02004411WS02004412    1.00   0.05  0.00  0.00  0.95  0.00  0.00  0.00  0.00  0.00
  WS02004412WS02004413    1.00   0.05  0.00  0.00  0.94  0.00  0.00  0.00  0.01  0.00
  WS02004413WS02003067    1.00   0.06  0.04  0.00  0.00  0.00  0.90  0.00  0.00  0.00
  WS02006109WS02006110    1.00   0.00  0.01  0.00  0.98  0.00  0.01  0.00  0.00  0.00
  WS02006110WS02006113    1.00   0.01  0.01  0.00  0.98  0.00  0.00  0.00  0.00  0.00
  WS02006111WS02006112    1.00   0.02  0.00  0.00  0.98  0.00  0.00  0.00  0.98  0.00
  WS02006112WS02006115    1.00   0.02  0.00  0.00  0.97  0.00  0.00  0.00  0.00  0.00
  WS02006113WS02006111    1.00   0.02  0.00  0.00  0.00  0.98  0.00  0.00  0.12  0.00
  WS02006115WS02006116    1.00   0.02  0.00  0.00  0.97  0.00  0.00  0.01  0.00  0.00
  WS02006116WS02004401    1.00   0.02  0.00  0.00  0.98  0.00  0.00  0.00  0.00  0.00
  WS02006228WS02006109    1.00   0.00  0.00  0.00  1.00  0.00  0.00  0.00  0.00  0.00
  WS02006229WS02006228    1.00   0.00  0.00  0.00  0.99  0.00  0.00  0.01  0.00  0.00
  WS02006230WS02006229    1.00   0.00  0.00  0.00  0.99  0.00  0.00  0.01  0.00  0.00
  WS02006231WS02006230    1.00   0.00  0.00  0.00  0.21  0.00  0.79  0.00  0.00  0.00
  WS02006232WS02006231    1.00   0.00  0.00  0.00  0.99  0.00  0.01  0.00  0.00  0.00
  WS02006234WS02006232    1.00   0.00  0.00  0.00  1.00  0.00  0.00  0.00  0.47  0.00
  WS02006235WS02006234    1.00   0.00  0.00  0.00  0.49  0.00  0.51  0.00  0.00  0.00
  WS02006238WS02006235    1.00   0.00  0.00  0.00  1.00  0.00  0.00  0.00  0.00  0.00
  WS02006239WS02006238    1.00   0.00  0.00  0.00  1.00  0.00  0.00  0.00  0.56  0.00
  WS02006240WS02006239    1.00   0.00  0.00  0.00  0.40  0.00  0.00  0.60  0.02  0.00
  WS02006242WS02006240    1.00   0.00  0.00  0.00  0.99  0.00  0.01  0.00  0.00  0.00
  WS02006243WS02006242    1.00   0.00  0.00  0.00  0.99  0.00  0.00  0.01  0.66  0.00
  WS02006245WS02006243    1.00   0.00  0.00  0.00  0.45  0.00  0.00  0.55  0.00  0.00
  WS02006247WS02006245    1.00   0.00  0.00  0.00  0.98  0.00  0.00  0.02  0.00  0.00
  WS02006248WS02006247    1.00   0.00  0.00  0.00  0.99  0.00  0.00  0.01  0.15  0.00
  WS02006249WS02006248    1.00   0.00  0.00  0.00  0.34  0.00  0.66  0.00  0.00  0.00
  WS02006251WS02006249    1.00   0.00  0.00  0.00  1.00  0.00  0.00  0.00  0.67  0.00
  WS02006252WS02006251    1.00   0.00  0.69  0.00  0.00  0.00  0.31  0.00  0.00  0.00
  WS02006256WS02006235    1.00   0.00  0.00  0.00  1.00  0.00  0.00  0.00  0.00  0.00
  WSF200WS02003060        1.00   0.00  0.02  0.00  0.98  0.00  0.00  0.00  0.70  0.00
  YS02001580YS02001583    1.00   0.23  0.63  0.00  0.14  0.00  0.00  0.00  0.73  0.00
  YS02001583YS02001586    1.00   0.52  0.28  0.00  0.19  0.00  0.00  0.00  0.73  0.00
  YS02001586YS02001590    1.00   0.13  0.00  0.00  0.33  0.04  0.00  0.50  0.31  0.00
  YS02001590YS02001593    1.00   0.13  0.01  0.00  0.06  0.00  0.80  0.00  0.00  0.00
  YS02001593YS02001596    1.00   0.14  0.00  0.00  0.07  0.01  0.00  0.78  0.01  0.00
  YS02001596YS02001600    1.00   0.14  0.00  0.00  0.14  0.02  0.00  0.70  0.07  0.00
  YS02001600YS02001601    1.00   0.13  0.01  0.00  0.86  0.00  0.00  0.00  0.22  0.00
  YS02001601YS02001602    1.00   0.13  0.02  0.00  0.86  0.00  0.00  0.00  0.00  0.00
  YS02001602YS02001605    1.00   0.14  0.00  0.00  0.86  0.00  0.00  0.00  0.00  0.00
  YS02001605YS02001607    1.00   0.14  0.00  0.00  0.86  0.00  0.00  0.00  0.00  0.00
  YS02001607YS02001610    1.00   0.13  0.01  0.00  0.85  0.00  0.00  0.00  0.02  0.00
  YS02001610YS02001613    1.00   0.13  0.00  0.00  0.87  0.00  0.00  0.00  0.01  0.00
  YS02001613YS02001616    1.00   0.13  0.00  0.00  0.87  0.00  0.00  0.00  0.01  0.00
  YS02001616YS02001619    1.00   0.13  0.00  0.00  0.87  0.00  0.00  0.00  0.00  0.00
  YS02001619YS02001622    1.00   0.13  0.00  0.00  0.87  0.00  0.00  0.00  0.00  0.00
  YS02001622YS02001625    1.00   0.13  0.00  0.00  0.87  0.00  0.00  0.00  0.06  0.00
  YS02001625YS02001629    1.00   0.13  0.07  0.00  0.78  0.00  0.03  0.00  0.00  0.00
  YS02001629YS02163301    1.00   0.17  0.01  0.00  0.82  0.00  0.00  0.00  0.00  0.00
  YS02001633YS02163601    1.00   0.00  0.01  0.00  0.99  0.00  0.00  0.00  0.16  0.00
  YS02001641YS02001644    1.00   0.00  0.01  0.00  0.99  0.00  0.00  0.00  0.00  0.00
  YS02001644YS02001647    1.00   0.00  0.19  0.00  0.81  0.00  0.00  0.00  0.00  0.00
  YS02001647YS02001649    1.00   0.00  0.19  0.00  0.81  0.00  0.00  0.00  0.02  0.00
  YS02001649YS02001757    1.00   0.00  0.00  0.00  1.00  0.00  0.00  0.00  0.20  0.00
  YS02001652YS02001649    1.00   0.00  0.00  0.00  0.96  0.04  0.00  0.00  0.17  0.00
  YS02001655YS02001652    1.00   0.00  0.00  0.00  0.77  0.00  0.00  0.22  0.00  0.00
  YS02001658YS02001655    1.00   0.00  0.15  0.00  0.77  0.08  0.00  0.00  0.23  0.00
  YS02001661YS02001658    1.00   0.15  0.00  0.00  0.56  0.29  0.00  0.00  0.77  0.00
  YS02001664YS02001661    1.00   0.13  0.00  0.00  0.79  0.09  0.00  0.00  0.87  0.00
  YS02001745YS02001748    1.00   0.00  0.00  0.00  0.48  0.09  0.00  0.42  0.55  0.00
  YS02001748YS02001751    1.00   0.00  0.00  0.00  0.93  0.07  0.00  0.00  0.17  0.00
  YS02001751YS02001754    1.00   0.00  0.00  0.00  0.77  0.00  0.00  0.23  0.00  0.00
  YS02001754YS02001757    1.00   0.00  0.00  0.00  1.00  0.00  0.00  0.00  0.22  0.00
  YS02001757CaochengTiaoxuchi    1.00   0.00  0.00  0.00  0.99  0.01  0.00  0.00  0.22  0.00
  YS02001759YS02001757    1.00   0.00  0.00  0.00  1.00  0.00  0.00  0.00  0.06  0.00
  YS02001762YS02001759    1.00   0.00  0.00  0.00  1.00  0.00  0.00  0.00  0.05  0.00
  YS02001765YS02001762    1.00   0.00  0.00  0.00  1.00  0.00  0.00  0.00  0.18  0.00
  YS02001767YS02001765    1.00   0.00  0.00  0.00  1.00  0.00  0.00  0.00  0.00  0.00
  YS02001770YS02001767    1.00   0.00  0.00  0.00  1.00  0.00  0.00  0.00  0.00  0.00
  YS02001774YS02001770    1.00   0.00  0.14  0.00  0.86  0.00  0.00  0.00  0.04  0.00
  YS02001779YS02001774    1.00   0.00  0.00  0.00  1.00  0.00  0.00  0.00  0.20  0.00
  YS02001783YS02001784    1.00   0.00  0.20  0.00  0.80  0.00  0.00  0.00  0.00  0.00
  YS02001784YS02001785    1.00   0.00  0.00  0.00  1.00  0.00  0.00  0.00  0.19  0.00
  YS02001786YS02001788    1.00   0.00  0.00  0.00  0.98  0.02  0.00  0.00  0.00  0.00
  YS02001788YS02001790    1.00   0.00  0.00  0.00  0.97  0.03  0.00  0.00  0.21  0.00
  YS02001790YS02001791    1.00   0.00  0.00  0.00  0.78  0.22  0.00  0.00  0.01  0.00
  YS02001791YS02001793    1.00   0.00  0.00  0.00  0.76  0.23  0.00  0.00  0.00  0.00
  YS02001793JiankangQianchi    1.00   0.00  0.00  0.00  0.93  0.06  0.00  0.00  0.21  0.00
  YS02001882YS02001884    1.00   0.16  0.01  0.00  0.82  0.00  0.00  0.00  0.00  0.00
  YS02001884YS02001887    1.00   0.06  0.05  0.00  0.89  0.00  0.00  0.00  0.00  0.00
  YS02001887YS02001890    1.00   0.00  0.00  0.00  0.97  0.00  0.03  0.00  0.00  0.00
  YS02001890YS02001895    1.00   0.00  0.18  0.00  0.82  0.00  0.00  0.00  0.00  0.00
  YS02001895YS02001898    1.00   0.18  0.00  0.00  0.80  0.00  0.02  0.00  0.00  0.00
  YS02001898YS02001901    1.00   0.18  0.00  0.00  0.81  0.00  0.00  0.00  0.01  0.00
  YS02001901YS02001904    1.00   0.18  0.00  0.00  0.82  0.00  0.00  0.00  0.00  0.00
  YS02001904YS02001907    1.00   0.00  0.18  0.00  0.82  0.00  0.00  0.00  0.00  0.00
  YS02001907YS02006553    1.00   0.00  0.02  0.00  0.98  0.00  0.00  0.00  0.00  0.00
  YS02001910YS02001907    1.00   0.00  0.00  0.00  0.97  0.00  0.00  0.03  0.12  0.00
  YS02001915YS02001910    1.00   0.00  0.00  0.00  0.97  0.03  0.00  0.00  0.18  0.00
  YS02001918YS02001915    1.00   0.00  0.01  0.00  0.98  0.02  0.00  0.00  0.80  0.00
  YS02001920YS02001918    1.00   0.00  0.01  0.00  0.99  0.00  0.00  0.00  0.00  0.00
  YS02001923YS02001920    1.00   0.00  0.00  0.00  1.00  0.00  0.00  0.00  0.96  0.00
  YS02001926YS02001923    1.00   0.00  0.07  0.00  0.03  0.00  0.90  0.00  0.00  0.00
  YS02001929YS02001926    1.00   0.00  0.13  0.00  0.87  0.00  0.00  0.00  0.85  0.00
  YS02006553YS02006556    1.00   0.01  0.00  0.00  0.99  0.00  0.00  0.00  0.03  0.00
  YS02006556YS02006558    1.00   0.00  0.00  0.00  1.00  0.00  0.00  0.00  0.00  0.00
  YS02006558YS02006561    1.00   0.20  0.00  0.00  0.04  0.77  0.00  0.00  0.18  0.00
  YS02006561YS02001783    1.00   0.20  0.00  0.00  0.77  0.03  0.00  0.00  0.74  0.00
  YS02163301YS02001633    1.00   0.00  0.17  0.00  0.83  0.00  0.00  0.00  0.00  0.00
  YS02163601YS02164001    1.00   0.00  0.08  0.00  0.92  0.00  0.00  0.00  0.00  0.00
  YS02164001YS02001641    1.00   0.01  0.07  0.00  0.92  0.00  0.00  0.00  0.06  0.00
  
  
  *************************
  Conduit Surcharge Summary
  *************************
  
  ----------------------------------------------------------------------------
                                                           Hours        Hours 
                         --------- Hours Full --------   Above Full   Capacity
  Conduit                Both Ends  Upstream  Dnstream   Normal Flow   Limited
  ----------------------------------------------------------------------------
  WS02003072WS02003073        0.01      0.01      0.01      2.43         0.01
  WS02004404WS02004405        0.01      0.01      0.01      2.35         0.01
  WS02006109WS02006110        0.01      0.01      1.58      0.01         0.01
  WS02006110WS02006113        0.01      0.01      1.55      0.01         0.01
  WS02006111WS02006112        0.01      0.01      1.67      0.01         0.01
  WS02006228WS02006109        1.52      1.58      1.52      1.96         1.52
  WS02006229WS02006228        1.51      1.53      1.51      1.74         1.51
  WS02006230WS02006229        1.65      1.71      1.65      2.85         1.65
  WS02006231WS02006230        0.01      0.01      0.01      2.58         0.01
  WS02006232WS02006231        0.01      0.01      1.58      0.01         0.01
  WS02006234WS02006232        1.49      1.49      1.58      0.01         0.01
  WS02006235WS02006234        0.01      0.01      1.53      2.38         0.01
  WS02006238WS02006235        1.54      1.54      1.59      0.01         0.01
  WS02006239WS02006238        1.55      1.58      1.55      1.81         1.55
  WS02006240WS02006239        1.54      1.55      1.54      1.83         1.54
  WS02006242WS02006240        1.54      1.54      1.66      1.95         0.01
  WS02006243WS02006242        1.56      1.56      1.61      0.01         0.01
  WS02006245WS02006243        1.55      1.56      1.55      1.92         1.55
  WS02006247WS02006245        1.55      1.57      1.55      2.26         1.55
  WS02006248WS02006247        1.55      1.55      1.57      0.01         0.01
  WS02006249WS02006248        1.54      1.54      1.56      2.23         0.01
  WS02006251WS02006249        1.56      1.57      1.56      2.03         1.56
  WS02006252WS02006251        2.07      2.07      2.07      2.07         0.01
  WS02006256WS02006235        2.46      2.46      3.48      0.02         0.01
  YS02001580YS02001583        0.18      0.19      0.23      0.01         0.01
  YS02001583YS02001586        0.20      0.20      0.33      0.01         0.01
  YS02001586YS02001590        0.33      0.33      0.39      0.01         0.01
  YS02001590YS02001593        0.39      0.39      0.40      0.42         0.01
  YS02001593YS02001596        0.39      0.39      0.46      0.01         0.01
  YS02001596YS02001600        0.49      0.49      0.56      0.01         0.01
  YS02001600YS02001601        0.60      0.60      0.87      0.01         0.01
  YS02001601YS02001602        0.76      0.76      0.92      0.56         0.01
  YS02001602YS02001605        0.72      0.72      0.76      1.68         0.01
  YS02001605YS02001607        0.69      0.72      0.69      0.78         0.69
  YS02001607YS02001610        0.34      0.34      0.36      0.01         0.01
  YS02001610YS02001613        0.33      0.33      0.36      0.01         0.01
  YS02001613YS02001616        0.29      0.29      0.33      0.01         0.01
  YS02001616YS02001619        0.28      0.28      0.29      0.01         0.01
  YS02001619YS02001622        0.27      0.28      0.27      0.41         0.27
  YS02001622YS02001625        0.27      0.27      0.44      0.01         0.01
  YS02001625YS02001629        0.21      0.21      0.44      0.01         0.01
  YS02001629YS02163301        0.43      0.43      0.44      0.28         0.22
  YS02001633YS02163601        0.46      0.46      0.49      0.32         0.33
  YS02001641YS02001644        0.35      0.39      0.35      0.88         0.35
  YS02001644YS02001647        0.11      0.11      0.35      0.03         0.01
  YS02001647YS02001649        0.11      0.11      0.21      0.01         0.01
  YS02001649YS02001757        0.20      0.21      0.32      0.16         0.12
  YS02001652YS02001649        0.01      0.01      0.21      0.01         0.01
  YS02001655YS02001652        0.01      0.01      0.01      0.01         0.01
  YS02001754YS02001757        0.01      0.01      0.32      0.01         0.01
  YS02001757CaochengTiaoxuchi        0.25      0.32      6.05      0.15         0.04
  YS02001759YS02001757        0.11      0.11      0.32      0.01         0.01
  YS02001762YS02001759        0.06      0.06      0.11      0.01         0.01
  YS02001765YS02001762        0.01      0.01      0.06      0.01         0.01
  YS02001767YS02001765        0.01      0.01      0.01      0.01         0.01
  YS02001770YS02001767        0.01      0.01      0.01      0.25         0.01
  YS02001774YS02001770        0.01      0.01      0.08      0.01         0.01
  YS02001779YS02001774        0.01      0.01      0.08      0.01         0.01
  YS02001783YS02001784        0.36      0.36      0.37      0.33         0.29
  YS02001784YS02001785        0.32      0.37      0.32      0.49         0.32
  YS02001786YS02001788        0.31      0.32      0.31      0.43         0.31
  YS02001788YS02001790        0.31      0.31      6.10      0.01         0.01
  YS02001790YS02001791        6.10      6.10      6.10      0.13         0.09
  YS02001791YS02001793        6.10      6.10      6.12      0.01         0.01
  YS02001793JiankangQianchi        6.11      6.11      6.21      0.01         0.01
  YS02001882YS02001884        0.23      0.23      0.24      0.01         0.01
  YS02001884YS02001887        0.26      0.26      0.27      0.01         0.01
  YS02001887YS02001890        0.28      0.28      0.29      0.01         0.01
  YS02001890YS02001895        0.22      0.22      0.31      0.01         0.01
  YS02001895YS02001898        0.21      0.21      0.22      0.01         0.01
  YS02001898YS02001901        0.22      0.22      0.26      0.01         0.01
  YS02001901YS02001904        0.25      0.25      0.26      0.01         0.01
  YS02001904YS02001907        0.25      0.25      0.42      0.01         0.01
  YS02001907YS02006553        0.49      0.49      0.53      0.01         0.01
  YS02001910YS02001907        0.30      0.30      0.41      0.01         0.01
  YS02001915YS02001910        0.23      0.23      0.30      0.01         0.01
  YS02001918YS02001915        0.12      0.12      0.23      0.01         0.01
  YS02001920YS02001918        0.12      0.12      0.14      0.01         0.01
  YS02001923YS02001920        0.04      0.04      0.14      0.01         0.01
  YS02001926YS02001923        0.01      0.01      0.01      0.01         0.01
  YS02001929YS02001926        0.01      0.01      0.01      0.01         0.01
  YS02006553YS02006556        0.36      0.36      0.42      0.01         0.01
  YS02006556YS02006558        0.39      0.39      0.43      0.01         0.01
  YS02006558YS02006561        0.23      0.35      0.23      0.46         0.23
  YS02006561YS02001783        0.15      0.15      0.36      0.01         0.01
  YS02163301YS02001633        0.44      0.44      0.47      0.01         0.01
  YS02163601YS02164001        0.41      0.41      0.49      0.19         0.01
  YS02164001YS02001641        0.39      0.41      0.39      0.47         0.39
  
  
  ***************
  Pumping Summary
  ***************
  
  ---------------------------------------------------------------------------------------------------------
                                                  Min       Avg       Max     Total     Power    % Time Off
                        Percent   Number of      Flow      Flow      Flow    Volume     Usage    Pump Curve
  Pump                 Utilized   Start-Ups       LPS       LPS       LPS  10^6 ltr     Kw-hr    Low   High
  ---------------------------------------------------------------------------------------------------------
  CC-R1                    1.06           1      0.00    683.00    683.00     0.208      3.51    0.0  100.0
  CC-R2                    1.06           1      0.00    683.00    683.00     0.208      3.51    0.0  100.0
  CC-S1                   29.01           6      0.00    200.00    200.00     1.671      8.48    0.0    0.0
  CC-S2                   25.88           5      0.00    200.00    200.00     1.491      7.77    0.0    0.0
  JK-R1                    0.97           2      0.00    347.46   1000.00     0.078      0.47    0.0    0.0
  JK-R2                    0.97           2      0.00    347.46   1000.00     0.078      0.47    0.0    0.0
  JK-S                     0.97           2      0.00    104.30    300.00     0.023      0.44    0.0    0.0
  XR-1                   100.00           1      0.00     95.00     95.00     2.736     68.18    0.0    0.0
  XR-2                   100.00           1      0.00     95.00     95.00     2.736     68.18    0.0    0.0
  XR-3                   100.00           1      0.00     95.00     95.00     2.736     68.18    0.0    0.0
  XR-4                   100.00           1      0.00     95.00     95.00     2.736     68.18    0.0    0.0
  

  Analysis begun on:  Wed Nov  5 16:28:45 2025
  Analysis ended on:  Wed Nov  5 16:28:48 2025
  Total elapsed time: 00:00:03