
  EPA STORM WATER MANAGEMENT MODEL - VERSION 5.2 (Build 5.2.4)
  PYSWMM TOOLKIT API - VERSION v1.0 (2023-11-27)
  ------------------------------------------------------------

  WARNING 04: minimum elevation drop used for Conduit WS02004404WS02004405
  WARNING 03: negative offset ignored for Link YS02001904YS02001907
  
  ****************
  Analysis Options
  ****************
  Flow Units ............... LPS
  Process Models:
    Rainfall/Runoff ........ YES
    RDII ................... NO
    Snowmelt ............... NO
    Groundwater ............ NO
    Flow Routing ........... YES
    Ponding Allowed ........ NO
    Water Quality .......... NO
  Infiltration Method ...... HORTON
  Flow Routing Method ...... DYNWAVE
  Surcharge Method ......... EXTRAN
  Starting Date ............ 08/28/2015 08:00:00
  Ending Date .............. 08/28/2015 16:00:00
  Antecedent Dry Days ...... 8.0
  Report Time Step ......... 00:01:00
  Wet Time Step ............ 00:01:00
  Dry Time Step ............ 00:01:00
  Routing Time Step ........ 30.00 sec
  Variable Time Step ....... YES
  Maximum Trials ........... 8
  Number of Threads ........ 4
  Head Tolerance ........... 0.001500 m
  
  
  **************************        Volume         Depth
  Runoff Quantity Continuity     hectare-m            mm
  **************************     ---------       -------
  Initial LID Storage ......         0.049         1.488
  Total Precipitation ......         2.172        65.472
  Evaporation Loss .........         0.000         0.000
  Infiltration Loss ........         0.078         2.356
  Surface Runoff ...........         1.610        48.546
  Final Storage ............         0.534        16.085
  Continuity Error (%) .....        -0.040
  
  
  **************************        Volume        Volume
  Flow Routing Continuity        hectare-m      10^6 ltr
  **************************     ---------     ---------
  Dry Weather Inflow .......         0.602         6.020
  Wet Weather Inflow .......         1.610        16.100
  Groundwater Inflow .......         0.000         0.000
  RDII Inflow ..............         0.000         0.000
  External Inflow ..........         0.105         1.045
  External Outflow .........         1.544        15.444
  Flooding Loss ............         0.736         7.363
  Evaporation Loss .........         0.000         0.000
  Exfiltration Loss ........         0.000         0.000
  Initial Stored Volume ....         0.303         3.031
  Final Stored Volume ......         0.798         7.978
  Continuity Error (%) .....       -17.518
  
  
  *************************
  Highest Continuity Errors
  *************************
  Node YS02001774 (24.60%)
  Node WS02006256 (-6.55%)
  Node YS02001583 (-5.77%)
  Node YS02001884 (4.69%)
  Node YS02001754 (3.24%)
  
  
  ***************************
  Time-Step Critical Elements
  ***************************
  Link WS02006238WS02006235 (28.46%)
  Link WS02001212WS02001213 (21.46%)
  Link WS02006235WS02006234 (17.29%)
  Link WS02003066WSF200 (9.63%)
  Link YS02006556YS02006558 (6.15%)
  
  
  ********************************
  Highest Flow Instability Indexes
  ********************************
  Link WS02006113WS02006111 (44)
  Link WS02006111WS02006112 (26)
  Link WS02006256WS02006235 (26)
  Link YS02001779YS02001774 (22)
  Link WS02006252WS02006251 (22)
  
  
  *********************************
  Most Frequent Nonconverging Nodes
  *********************************
  Node CC-1 (11.07%)
  Node CC-2 (11.07%)
  Node JK-1 (11.07%)
  Node JK-2 (11.07%)
  Node WSC (11.07%)
  
  
  *************************
  Routing Time Step Summary
  *************************
  Minimum Time Step           :     0.00 sec
  Average Time Step           :     3.41 sec
  Maximum Time Step           :     6.46 sec
  % of Time in Steady State   :     0.00
  Average Iterations per Step :     3.38
  % of Steps Not Converging   :    11.07
  Time Step Frequencies       :
     30.000 - 13.228 sec      :     0.00 %
     13.228 -  5.833 sec      :    22.61 %
      5.833 -  2.572 sec      :    42.36 %
      2.572 -  1.134 sec      :    26.52 %
      1.134 -  0.500 sec      :     8.51 %
  
  
  ***************************
  Subcatchment Runoff Summary
  ***************************
  
  ------------------------------------------------------------------------------------------------------------------------------
                            Total      Total      Total      Total     Imperv       Perv      Total       Total     Peak  Runoff
                           Precip      Runon       Evap      Infil     Runoff     Runoff     Runoff      Runoff   Runoff   Coeff
  Subcatchment                 mm         mm         mm         mm         mm         mm         mm    10^6 ltr      LPS
  ------------------------------------------------------------------------------------------------------------------------------
  sub60                     65.47       0.00       0.00       1.40      43.54       4.67      48.21        0.63   401.24   0.736
  sub61                     65.47       0.00       0.00       2.14      43.50       6.96      50.46        0.93   586.71   0.771
  sub62                     65.47       0.00       0.00       0.95      46.37       3.17      49.55        1.36   803.93   0.757
  sub63                     65.47       0.00       0.00       3.93      37.26      11.61      48.87        1.11   673.17   0.746
  sub64                     65.47       0.00       0.00       1.89      42.42       5.76      48.19        1.16   665.08   0.736
  sub65                     65.47       0.00       0.00       1.73      45.79       5.26      51.05        1.41   782.00   0.780
  sub66                     65.47       0.00       0.00       4.61      36.03      10.45      46.48        2.17  1040.53   0.710
  sub67                     65.47       0.00       0.00       0.94      47.54       3.28      50.83        0.95   618.34   0.776
  sub68                     65.47       0.00       0.00       1.65      41.99       5.34      47.33        1.30   801.41   0.723
  sub69                     65.47       0.00       0.00       1.51      44.02       6.27      50.29        1.86  1010.45   0.768
  sub70                     65.47       0.00       0.00       5.10      35.27      13.12      48.39        1.40   604.79   0.739
  sub71                     65.47       0.00       0.00       0.88      42.13       2.87      45.00        1.18   670.20   0.687
  sub72                     65.47       0.00       0.00       0.84      45.51       2.67      48.17        0.66   350.62   0.736
  

  ***********************
  LID Performance Summary
  ***********************

  --------------------------------------------------------------------------------------------------------------------
                                         Total      Evap     Infil   Surface    Drain    Initial     Final  Continuity
                                        Inflow      Loss      Loss   Outflow   Outflow   Storage   Storage       Error
  Subcatchment      LID Control             mm        mm        mm        mm        mm        mm        mm           %
  --------------------------------------------------------------------------------------------------------------------
  sub60             GreenRoof            65.47      0.00      0.00      0.00      0.00      7.05     72.60       -0.11
  sub61             GreenRoof            65.47      0.00      0.00      0.00      0.00      7.05     72.60       -0.11
  sub62             GreenRoof            65.47      0.00      0.00      0.00      0.00      7.05     72.60       -0.11
  sub63             GreenRoof            65.47      0.00      0.00      0.00      0.00      7.05     72.60       -0.11
  sub64             GreenRoof            65.47      0.00      0.00      0.00      0.00      7.05     72.60       -0.11
  sub65             GreenRoof            65.47      0.00      0.00      0.00      0.00      7.05     72.60       -0.11
  sub66             GreenRoof            65.47      0.00      0.00      0.00      0.00      7.05     72.60       -0.11
  sub67             GreenRoof            65.47      0.00      0.00      0.00      0.00      7.05     72.60       -0.11
  sub68             GreenRoof            65.47      0.00      0.00      0.00      0.00      7.05     72.60       -0.11
  sub69             GreenRoof            65.47      0.00      0.00      0.00      0.00      7.05     72.60       -0.11
  sub70             GreenRoof            65.47      0.00      0.00      0.00      0.00      7.05     72.60       -0.11
  sub71             GreenRoof            65.47      0.00      0.00      0.00      0.00      7.05     72.60       -0.11
  sub72             GreenRoof            65.47      0.00      0.00      0.00      0.00      7.05     72.60       -0.11
  
  ******************
  Node Depth Summary
  ******************
  
  ---------------------------------------------------------------------------------
                                 Average  Maximum  Maximum  Time of Max    Reported
                                   Depth    Depth      HGL   Occurrence   Max Depth
  Node                 Type       Meters   Meters   Meters  days hr:min      Meters
  ---------------------------------------------------------------------------------
  WS02001211           JUNCTION     0.76     0.78     5.62     0  03:15        0.78
  WS02001212           JUNCTION     0.46     0.49     5.55     0  03:17        0.49
  WS02001213           JUNCTION     0.68     0.73     5.49     0  03:17        0.73
  WS02003059           JUNCTION     0.73     0.78     5.47     0  03:16        0.78
  WS02003060           JUNCTION     0.38     0.47     5.41     0  03:16        0.47
  WS02003066           JUNCTION     0.16     0.27     5.82     0  03:15        0.27
  WS02003067           JUNCTION     0.44     0.65     5.97     0  03:15        0.65
  WS02003069           JUNCTION     0.43     0.54     5.12     0  03:16        0.54
  WS02003072           JUNCTION     0.49     0.60     4.97     0  03:17        0.60
  WS02003073           JUNCTION     0.29     0.37     4.43     0  03:14        0.37
  WS02004138           JUNCTION     0.19     0.20     7.45     0  00:00        0.19
  WS02004139           JUNCTION     0.71     0.73     5.64     0  03:19        0.73
  WS02004401           JUNCTION     0.52     0.75     6.75     0  02:02        0.75
  WS02004402           JUNCTION     0.56     0.78     6.74     0  02:02        0.78
  WS02004403           JUNCTION     0.58     0.80     6.73     0  03:10        0.80
  WS02004404           JUNCTION     0.66     0.88     6.73     0  03:11        0.88
  WS02004405           JUNCTION     0.65     0.87     6.72     0  02:03        0.87
  WS02004406           JUNCTION     0.67     0.88     6.71     0  02:03        0.88
  WS02004407           JUNCTION     0.14     0.26     6.57     0  03:13        0.26
  WS02004409           JUNCTION     0.32     0.57     6.34     0  03:13        0.57
  WS02004410           JUNCTION     0.35     0.59     6.31     0  03:14        0.59
  WS02004411           JUNCTION     0.37     0.61     6.29     0  03:14        0.61
  WS02004412           JUNCTION     0.39     0.62     6.26     0  03:11        0.62
  WS02004413           JUNCTION     0.55     0.79     6.26     0  03:15        0.79
  WS02006109           JUNCTION     0.58     0.84     7.45     0  02:11        0.83
  WS02006110           JUNCTION     0.59     0.82     7.41     0  01:58        0.82
  WS02006111           JUNCTION     0.15     0.25     6.96     0  01:59        0.25
  WS02006112           JUNCTION     0.67     0.93     6.82     0  02:01        0.93
  WS02006113           JUNCTION     0.23     0.39     7.29     0  02:03        0.39
  WS02006115           JUNCTION     0.41     0.65     6.78     0  02:02        0.65
  WS02006116           JUNCTION     0.49     0.73     6.77     0  03:10        0.73
  WS02006228           JUNCTION     0.57     0.85     7.50     0  02:11        0.84
  WS02006229           JUNCTION     0.54     0.83     7.52     0  02:11        0.82
  WS02006230           JUNCTION     0.52     0.86     7.60     0  01:58        0.86
  WS02006231           JUNCTION     0.33     0.60     7.72     0  02:07        0.60
  WS02006232           JUNCTION     0.45     0.75     7.79     0  02:07        0.75
  WS02006234           JUNCTION     0.37     0.71     7.87     0  02:07        0.71
  WS02006235           JUNCTION     0.40     0.76     7.93     0  02:03        0.76
  WS02006238           JUNCTION     0.43     0.81     7.96     0  02:10        0.80
  WS02006239           JUNCTION     0.40     0.81     8.02     0  02:07        0.80
  WS02006240           JUNCTION     0.38     0.79     8.09     0  02:07        0.78
  WS02006242           JUNCTION     0.45     0.90     8.17     0  02:05        0.90
  WS02006243           JUNCTION     0.38     0.84     8.26     0  02:10        0.84
  WS02006245           JUNCTION     0.39     0.86     8.34     0  02:07        0.85
  WS02006247           JUNCTION     0.40     0.89     8.39     0  02:07        0.89
  WS02006248           JUNCTION     0.38     0.86     8.45     0  02:07        0.85
  WS02006249           JUNCTION     0.40     0.90     8.50     0  01:56        0.90
  WS02006251           JUNCTION     0.39     0.91     8.58     0  01:56        0.91
  WS02006252           JUNCTION     0.29     1.50     9.74     0  00:00        0.59
  WS02006256           JUNCTION     0.63     2.35     9.28     0  00:00        2.35
  WSF200               JUNCTION     0.13     0.25     5.48     0  03:15        0.25
  YS02001580           JUNCTION     0.11     1.05     9.59     0  02:04        0.77
  YS02001583           JUNCTION     0.14     1.14     9.64     0  02:07        1.14
  YS02001586           JUNCTION     0.24     1.13     9.30     0  02:04        1.13
  YS02001590           JUNCTION     0.34     1.40     9.26     0  02:04        1.40
  YS02001593           JUNCTION     0.28     1.46     9.32     0  02:07        1.46
  YS02001596           JUNCTION     0.53     1.69     9.11     0  02:04        1.65
  YS02001600           JUNCTION     0.75     1.87     9.00     0  02:04        1.87
  YS02001601           JUNCTION     1.00     2.06     8.90     0  02:03        2.06
  YS02001602           JUNCTION     0.91     1.87     8.77     0  02:04        1.87
  YS02001605           JUNCTION     0.88     1.78     8.68     0  02:07        1.78
  YS02001607           JUNCTION     0.87     1.68     8.53     0  02:07        1.68
  YS02001610           JUNCTION     0.91     1.68     8.48     0  02:07        1.68
  YS02001613           JUNCTION     0.87     1.70     8.54     0  02:07        1.70
  YS02001616           JUNCTION     0.80     1.61     8.52     0  02:07        1.61
  YS02001619           JUNCTION     0.78     1.61     8.54     0  02:07        1.61
  YS02001622           JUNCTION     0.79     1.62     8.52     0  02:07        1.62
  YS02001625           JUNCTION     1.05     1.78     8.38     0  02:07        1.78
  YS02001629           JUNCTION     1.07     1.85     8.40     0  02:09        1.85
  YS02001633           JUNCTION     1.15     2.08     8.53     0  02:07        2.08
  YS02001641           JUNCTION     1.13     2.10     8.54     0  02:07        2.10
  YS02001644           JUNCTION     1.13     1.92     8.35     0  02:10        1.92
  YS02001647           JUNCTION     0.94     1.73     8.34     0  02:13        1.72
  YS02001649           JUNCTION     1.09     1.93     8.32     0  02:12        1.91
  YS02001652           JUNCTION     0.92     1.76     8.35     0  02:12        1.73
  YS02001655           JUNCTION     0.72     1.64     8.49     0  02:10        1.50
  YS02001658           JUNCTION     0.51     1.51     8.65     0  02:10        1.23
  YS02001661           JUNCTION     0.33     1.05     8.46     0  02:11        0.99
  YS02001664           JUNCTION     0.06     0.47     8.40     0  02:12        0.44
  YS02001745           JUNCTION     0.22     0.73     8.24     0  02:12        0.72
  YS02001748           JUNCTION     0.54     1.30     8.38     0  02:11        1.16
  YS02001751           JUNCTION     0.68     1.40     8.28     0  02:11        1.34
  YS02001754           JUNCTION     0.88     1.61     8.22     0  02:11        1.59
  YS02001757           JUNCTION     1.17     1.95     8.21     0  02:12        1.93
  YS02001759           JUNCTION     1.09     1.93     8.29     0  02:12        1.93
  YS02001762           JUNCTION     1.06     1.92     8.32     0  02:11        1.92
  YS02001765           JUNCTION     1.02     1.91     8.36     0  02:11        1.91
  YS02001767           JUNCTION     1.00     1.89     8.38     0  02:11        1.89
  YS02001770           JUNCTION     1.00     1.95     8.44     0  02:11        1.95
  YS02001774           JUNCTION     1.06     1.97     8.39     0  02:11        1.97
  YS02001779           JUNCTION     0.83     1.68     8.37     0  02:08        1.68
  YS02001783           JUNCTION     0.52     2.40     8.54     0  02:07        2.40
  YS02001784           JUNCTION     0.57     2.29     8.36     0  02:07        2.29
  YS02001786           JUNCTION     0.56     2.23     8.26     0  02:07        2.23
  YS02001788           JUNCTION     0.57     2.28     8.26     0  02:07        2.28
  YS02001790           JUNCTION     0.80     1.96     7.60     0  02:07        1.96
  YS02001791           JUNCTION     0.90     2.28     7.75     0  02:07        2.28
  YS02001793           JUNCTION     1.37     3.13     7.96     0  02:07        3.13
  YS02001882           JUNCTION     0.33     1.81     8.52     0  02:07        1.69
  YS02001884           JUNCTION     0.42     1.87     8.49     0  02:07        1.79
  YS02001887           JUNCTION     0.50     1.89     8.42     0  02:07        1.85
  YS02001890           JUNCTION     0.53     1.81     8.32     0  02:08        1.81
  YS02001895           JUNCTION     0.30     1.59     8.34     0  02:08        1.57
  YS02001898           JUNCTION     0.31     1.60     8.33     0  02:08        1.57
  YS02001901           JUNCTION     0.42     1.70     8.31     0  02:08        1.67
  YS02001904           JUNCTION     0.40     1.66     8.29     0  02:08        1.64
  YS02001907           JUNCTION     0.72     1.96     8.25     0  02:07        1.96
  YS02001910           JUNCTION     0.52     1.98     8.49     0  02:09        1.88
  YS02001915           JUNCTION     0.33     1.93     8.65     0  02:09        1.81
  YS02001918           JUNCTION     0.18     1.81     8.88     0  02:09        1.79
  YS02001920           JUNCTION     0.26     2.10     9.10     0  02:09        2.07
  YS02001923           JUNCTION     0.13     2.03     9.29     0  02:09        2.03
  YS02001926           JUNCTION     0.17     1.90     9.35     0  02:09        1.90
  YS02001929           JUNCTION     0.09     1.78     9.47     0  02:08        1.78
  YS02006553           JUNCTION     0.72     2.19     8.47     0  02:07        2.19
  YS02006556           JUNCTION     0.69     2.39     8.70     0  02:07        2.39
  YS02006558           JUNCTION     0.73     2.50     8.77     0  02:07        2.50
  YS02006561           JUNCTION     0.19     1.67     8.33     0  02:07        1.13
  YS02163301           JUNCTION     1.09     2.03     8.55     0  02:07        2.03
  YS02163601           JUNCTION     1.18     2.08     8.48     0  02:07        2.08
  YS02164001           JUNCTION     1.12     1.97     8.42     0  02:10        1.92
  CC-1                 OUTFALL      0.00     0.00     0.00     0  00:00        0.00
  CC-2                 OUTFALL      0.00     0.00     0.00     0  00:00        0.00
  JK-1                 OUTFALL      0.00     0.00     0.00     0  00:00        0.00
  JK-2                 OUTFALL      0.00     0.00     0.00     0  00:00        0.00
  WSC                  OUTFALL      0.29     0.37     1.04     0  03:14        0.37
  CC-storage           STORAGE      1.74     2.30     7.80     0  02:39        2.30
  JK-storage           STORAGE      4.62     5.80     6.60     0  01:57        5.80
  XR-storage           STORAGE      0.27     5.00     3.00     0  00:00        4.91
  
  
  *******************
  Node Inflow Summary
  *******************
  
  -------------------------------------------------------------------------------------------------
                                  Maximum  Maximum                  Lateral       Total        Flow
                                  Lateral    Total  Time of Max      Inflow      Inflow     Balance
                                   Inflow   Inflow   Occurrence      Volume      Volume       Error
  Node                 Type           LPS      LPS  days hr:min    10^6 ltr    10^6 ltr     Percent
  -------------------------------------------------------------------------------------------------
  WS02001211           JUNCTION      7.35   389.13     0  03:41       0.212        11.1       0.348
  WS02001212           JUNCTION      0.00   390.85     0  02:36           0        11.1       0.207
  WS02001213           JUNCTION      0.00   392.60     0  03:41           0        11.1       0.238
  WS02003059           JUNCTION      0.00   395.64     0  03:40           0          11       0.328
  WS02003060           JUNCTION     16.53   816.10     0  03:15       0.476        14.9       0.145
  WS02003066           JUNCTION      0.00   411.89     0  03:15           0        3.45       0.035
  WS02003067           JUNCTION      0.00   411.87     0  03:15           0        3.45       0.116
  WS02003069           JUNCTION      0.32   816.36     0  03:16     0.00922        14.9       0.153
  WS02003072           JUNCTION      0.00   816.34     0  03:17           0        14.9       0.199
  WS02003073           JUNCTION      1.82   818.14     0  03:17      0.0524        14.9       0.214
  WS02004138           JUNCTION      0.00   380.00     0  00:00           0        10.9       0.059
  WS02004139           JUNCTION      0.32   395.52     0  00:00     0.00924        10.9       0.407
  WS02004401           JUNCTION      0.00   412.10     0  02:02           0        3.55       0.279
  WS02004402           JUNCTION      0.00   411.99     0  02:02           0        3.54       0.285
  WS02004403           JUNCTION      0.00   412.05     0  02:03           0        3.53       0.279
  WS02004404           JUNCTION      0.16   412.15     0  03:12     0.00467        3.52       0.246
  WS02004405           JUNCTION      0.04   412.19     0  03:12      0.0011        3.52       0.335
  WS02004406           JUNCTION      0.00   412.28     0  02:03           0         3.5       0.582
  WS02004407           JUNCTION      0.00   412.00     0  03:13           0        3.48       0.024
  WS02004409           JUNCTION      0.00   411.95     0  03:13           0        3.48       0.062
  WS02004410           JUNCTION      0.00   411.95     0  03:13           0        3.48       0.113
  WS02004411           JUNCTION      0.00   411.95     0  03:14           0        3.48       0.147
  WS02004412           JUNCTION      0.00   411.93     0  03:14           0        3.47       0.202
  WS02004413           JUNCTION      0.00   411.99     0  03:14           0        3.47       0.362
  WS02006109           JUNCTION      1.23   412.14     0  02:11      0.0354        3.59       0.061
  WS02006110           JUNCTION      0.00   411.69     0  02:16           0        3.59       0.171
  WS02006111           JUNCTION      0.00   423.84     0  01:58           0        3.58       0.022
  WS02006112           JUNCTION      0.00   413.76     0  02:00           0        3.58       0.487
  WS02006113           JUNCTION      0.00   412.04     0  02:02           0        3.58       0.040
  WS02006115           JUNCTION      0.00   412.52     0  02:02           0        3.56       0.174
  WS02006116           JUNCTION      0.00   412.19     0  02:02           0        3.55       0.128
  WS02006228           JUNCTION      0.00   411.71     0  02:11           0        3.55       0.002
  WS02006229           JUNCTION      0.00   410.55     0  02:11           0        3.56       0.171
  WS02006230           JUNCTION     10.28   410.59     0  02:15       0.296        3.56       0.155
  WS02006231           JUNCTION      0.00   400.42     0  02:07           0        3.26      -0.151
  WS02006232           JUNCTION      0.00   400.35     0  02:15           0        3.27       0.372
  WS02006234           JUNCTION      0.00   402.00     0  02:07           0        3.27      -0.233
  WS02006235           JUNCTION      0.00   402.22     0  03:12           0        3.29       0.309
  WS02006238           JUNCTION      0.00   401.98     0  02:19           0        3.25      -0.491
  WS02006239           JUNCTION      0.00   400.90     0  02:17           0        3.24      -0.379
  WS02006240           JUNCTION      0.00   401.48     0  02:07           0        3.23      -0.052
  WS02006242           JUNCTION      0.00   401.40     0  02:04           0        3.23       0.051
  WS02006243           JUNCTION      0.00   401.84     0  03:11           0        3.22      -0.129
  WS02006245           JUNCTION      0.00   403.38     0  02:10           0        3.24       0.557
  WS02006247           JUNCTION      0.00   401.23     0  02:07           0        3.24       0.001
  WS02006248           JUNCTION      0.00   403.56     0  02:07           0        3.24       0.017
  WS02006249           JUNCTION      0.00   474.44     0  02:26           0        3.26       0.535
  WS02006251           JUNCTION      0.08   404.65     0  04:26     0.00222        3.26      -0.012
  WS02006252           JUNCTION      0.00   400.00     0  00:00           0        3.26      -0.088
  WS02006256           JUNCTION      0.00   300.00     0  00:00           0      0.0243      -6.148
  WSF200               JUNCTION      0.00   411.88     0  03:15           0        3.45       0.015
  YS02001580           JUNCTION      0.00    72.06     0  02:04           0     0.00387      -0.246
  YS02001583           JUNCTION      0.00   137.26     0  02:03           0       0.015      -5.457
  YS02001586           JUNCTION    604.79   604.79     0  02:15         1.4        1.41       0.081
  YS02001590           JUNCTION      0.00   318.02     0  02:12           0         1.2       0.035
  YS02001593           JUNCTION      0.00   318.21     0  02:12           0        1.19       0.015
  YS02001596           JUNCTION      0.00   318.16     0  02:12           0        1.21       0.154
  YS02001600           JUNCTION      0.00   318.16     0  02:11           0        1.22       0.563
  YS02001601           JUNCTION   1010.45  1327.96     0  02:14        1.86        3.09       0.299
  YS02001602           JUNCTION      0.00   499.82     0  02:03           0        2.12       0.439
  YS02001605           JUNCTION      0.00   499.70     0  02:03           0        1.99       0.707
  YS02001607           JUNCTION      0.00   498.83     0  02:03           0        1.99       0.995
  YS02001610           JUNCTION      0.00   515.96     0  02:15           0        2.06       1.029
  YS02001613           JUNCTION      0.00   493.94     0  02:03           0        1.74       1.273
  YS02001616           JUNCTION      0.00   495.67     0  02:02           0        1.75       1.107
  YS02001619           JUNCTION   1040.53  1040.53     0  02:15        2.17        3.85       0.481
  YS02001622           JUNCTION      0.00   934.93     0  02:07           0        3.79       0.696
  YS02001625           JUNCTION      0.00  1129.18     0  02:15           0        3.88       1.165
  YS02001629           JUNCTION      0.00   939.08     0  02:07           0        3.02       0.670
  YS02001633           JUNCTION    782.20  1364.83     0  02:07        1.41        4.29       0.744
  YS02001641           JUNCTION      0.00  1377.09     0  02:07           0        4.13       0.498
  YS02001644           JUNCTION    665.12  1767.86     0  02:07        1.16        5.26       0.502
  YS02001647           JUNCTION      0.00  1734.16     0  02:07           0         5.1       0.549
  YS02001649           JUNCTION      0.00  1950.90     0  02:07           0        6.18       0.612
  YS02001652           JUNCTION      0.00   694.53     0  02:13           0        1.16       1.925
  YS02001655           JUNCTION      0.15   692.77     0  02:13     0.00443        1.17       1.849
  YS02001658           JUNCTION      0.00   692.14     0  02:13           0        1.17       1.093
  YS02001661           JUNCTION      0.00   833.51     0  02:13           0        1.14       0.389
  YS02001664           JUNCTION    673.17   673.17     0  02:13        1.11        1.11      -0.032
  YS02001745           JUNCTION    401.25   401.25     0  02:13       0.633       0.656       0.505
  YS02001748           JUNCTION      0.04   462.17     0  02:11      0.0013       0.689       1.661
  YS02001751           JUNCTION      0.01   406.45     0  02:13    0.000317       0.701       2.988
  YS02001754           JUNCTION      0.26   405.77     0  02:12     0.00749       0.701       3.348
  YS02001757           JUNCTION      0.00  3145.10     0  02:12           0        8.88       1.049
  YS02001759           JUNCTION    586.75  1262.02     0  02:12       0.927        2.18       1.031
  YS02001762           JUNCTION      0.00   697.78     0  02:11           0        1.27       1.656
  YS02001765           JUNCTION      0.00   698.45     0  02:11           0        1.29       1.889
  YS02001767           JUNCTION      0.54   699.12     0  02:11      0.0154        1.32       2.724
  YS02001770           JUNCTION    804.08   804.08     0  02:13        1.36         1.4       2.223
  YS02001774           JUNCTION      0.00   270.73     0  02:08           0       0.101      32.630
  YS02001779           JUNCTION      0.01   271.49     0  02:08    0.000144      0.0554      33.974
  YS02001783           JUNCTION      0.00   976.58     0  02:11           0        3.35       0.201
  YS02001784           JUNCTION      1.06   977.39     0  02:12      0.0305        3.38       0.305
  YS02001786           JUNCTION      0.06   977.59     0  02:12     0.00162        3.37       0.393
  YS02001788           JUNCTION      0.07   977.59     0  02:12     0.00204        3.36       0.400
  YS02001790           JUNCTION      0.15   977.64     0  02:12     0.00446        3.35       0.490
  YS02001791           JUNCTION      0.00   978.48     0  02:11           0        3.33       0.429
  YS02001793           JUNCTION      0.00   979.71     0  02:11           0        3.32       0.484
  YS02001882           JUNCTION      0.00    31.20     0  02:05           0      0.0126       5.302
  YS02001884           JUNCTION      0.00    70.77     0  02:05           0      0.0489       4.925
  YS02001887           JUNCTION    618.79   618.79     0  02:13       0.958       0.992       0.434
  YS02001890           JUNCTION      0.00   618.83     0  02:13           0       0.951       0.516
  YS02001895           JUNCTION      0.00   516.52     0  02:15           0       0.927       0.170
  YS02001898           JUNCTION      0.00   516.88     0  02:15           0       0.925       0.007
  YS02001901           JUNCTION      0.00   516.62     0  02:15           0       0.928       0.328
  YS02001904           JUNCTION      0.00   516.38     0  02:15           0       0.932       0.238
  YS02001907           JUNCTION      0.00  1582.32     0  02:13           0        2.85       0.636
  YS02001910           JUNCTION      0.00  1068.66     0  02:13           0        1.93       0.348
  YS02001915           JUNCTION    670.22  1067.78     0  02:13        1.18        1.96       0.061
  YS02001918           JUNCTION      0.00   459.03     0  02:09           0       0.814      -0.006
  YS02001920           JUNCTION      2.87   457.06     0  02:09      0.0827       0.798       0.089
  YS02001923           JUNCTION      0.04   462.04     0  02:08     0.00109       0.699      -0.134
  YS02001926           JUNCTION      0.05   770.16     0  02:08      0.0015       0.679      -0.161
  YS02001929           JUNCTION    350.62   374.28     0  02:08       0.662       0.665      -0.176
  YS02006553           JUNCTION      0.00   675.89     0  02:27           0        2.07       0.571
  YS02006556           JUNCTION      0.00   676.22     0  02:27           0        2.08       0.350
  YS02006558           JUNCTION    802.29   978.72     0  02:11        1.33        3.38       0.086
  YS02006561           JUNCTION      0.00   976.99     0  02:11           0        3.35      -0.019
  YS02163301           JUNCTION      0.00   946.77     0  02:07           0        3.01       0.800
  YS02163601           JUNCTION      0.11  1365.83     0  02:07     0.00317        4.16       0.726
  YS02164001           JUNCTION      0.00  1367.10     0  02:07           0        4.13       0.470
  CC-1                 OUTFALL       0.00   683.00     0  00:00           0       0.208       0.000
  CC-2                 OUTFALL       0.00   683.00     0  00:00           0       0.208       0.000
  JK-1                 OUTFALL       0.00  1000.00     0  00:00           0      0.0791       0.000
  JK-2                 OUTFALL       0.00  1000.00     0  00:00           0      0.0791       0.000
  WSC                  OUTFALL       0.00   818.14     0  03:14           0        14.9       0.000
  CC-storage           STORAGE       0.00  3143.75     0  02:11           0        10.8       0.389
  JK-storage           STORAGE       0.00   981.78     0  02:11           0        3.45       0.471
  XR-storage           STORAGE     200.00   200.00     0  00:00        5.76        6.36     -41.886
  
  
  **********************
  Node Surcharge Summary
  **********************
  
  Surcharging occurs when water rises above the top of the highest conduit.
  ---------------------------------------------------------------------
                                               Max. Height   Min. Depth
                                   Hours       Above Crown    Below Rim
  Node                 Type      Surcharged         Meters       Meters
  ---------------------------------------------------------------------
  WS02006109           JUNCTION        1.49          0.015        1.805
  WS02006228           JUNCTION        1.47          0.017        2.183
  WS02006229           JUNCTION        1.51          0.027        2.423
  WS02006232           JUNCTION        1.62          0.051        1.429
  WS02006235           JUNCTION        1.51          0.054        1.236
  WS02006238           JUNCTION        1.55          0.092        1.338
  WS02006239           JUNCTION        1.52          0.068        1.222
  WS02006240           JUNCTION        1.52          0.085        1.305
  WS02006242           JUNCTION        1.67          0.174        0.646
  WS02006243           JUNCTION        1.55          0.133        0.637
  WS02006245           JUNCTION        1.55          0.146        0.704
  WS02006247           JUNCTION        1.58          0.183        0.577
  WS02006248           JUNCTION        1.54          0.139        0.241
  WS02006249           JUNCTION        1.57          0.204        0.186
  WS02006252           JUNCTION        2.26          1.100        0.000
  WS02006256           JUNCTION        3.85          2.050        0.000
  YS02001580           JUNCTION        0.52          0.445        0.005
  YS02001583           JUNCTION        0.52          0.500        0.000
  YS02001586           JUNCTION        0.73          0.510        0.000
  YS02001590           JUNCTION        0.83          0.750        0.000
  YS02001593           JUNCTION        0.84          0.840        0.000
  YS02001596           JUNCTION        1.03          0.956        0.114
  YS02001600           JUNCTION        1.42          1.190        0.000
  YS02001601           JUNCTION        6.28          1.440        0.000
  YS02001602           JUNCTION        6.22          1.270        0.000
  YS02001605           JUNCTION        6.19          1.180        0.000
  YS02001607           JUNCTION        1.06          0.680        0.000
  YS02001610           JUNCTION        1.32          0.680        0.000
  YS02001613           JUNCTION        1.09          0.700        0.000
  YS02001616           JUNCTION        0.99          0.610        0.000
  YS02001619           JUNCTION        0.98          0.610        0.000
  YS02001622           JUNCTION        0.99          0.620        0.000
  YS02001625           JUNCTION        5.99          0.780        0.000
  YS02001629           JUNCTION        0.96          0.470        0.000
  YS02001633           JUNCTION        6.00          1.060        0.000
  YS02001641           JUNCTION        5.97          1.100        0.000
  YS02001644           JUNCTION        5.95          0.920        0.000
  YS02001647           JUNCTION        5.87          0.728        0.172
  YS02001649           JUNCTION        5.88          0.926        0.124
  YS02001652           JUNCTION        5.85          0.729        0.401
  YS02001655           JUNCTION        0.88          0.640        0.560
  YS02001658           JUNCTION        0.17          0.510        0.790
  YS02001748           JUNCTION        0.10          0.220        0.970
  YS02001751           JUNCTION        0.77          0.401        0.799
  YS02001754           JUNCTION        5.85          0.562        0.588
  YS02001757           JUNCTION        5.88          0.947        0.263
  YS02001759           JUNCTION        5.87          0.930        0.280
  YS02001762           JUNCTION        5.86          0.922        0.228
  YS02001765           JUNCTION        5.86          0.905        0.195
  YS02001767           JUNCTION        5.86          0.895        0.135
  YS02001770           JUNCTION        5.86          0.920        0.000
  YS02001774           JUNCTION        5.86          0.972        0.078
  YS02001779           JUNCTION        5.55          0.680        0.000
  YS02001783           JUNCTION        0.70          1.600        0.000
  YS02001784           JUNCTION        0.71          1.490        0.000
  YS02001786           JUNCTION        0.70          1.430        0.000
  YS02001788           JUNCTION        0.70          1.480        0.000
  YS02001790           JUNCTION        6.05          1.157        0.000
  YS02001791           JUNCTION        6.06          1.476        0.444
  YS02001793           JUNCTION        6.08          2.128        0.472
  YS02001882           JUNCTION        0.44          0.808        0.022
  YS02001884           JUNCTION        0.45          0.815        0.055
  YS02001887           JUNCTION        0.48          0.836        0.114
  YS02001890           JUNCTION        0.50          0.760        0.000
  YS02001895           JUNCTION        0.43          0.589        0.161
  YS02001898           JUNCTION        0.42          0.567        0.173
  YS02001901           JUNCTION        0.47          0.698        0.172
  YS02001904           JUNCTION        0.46          0.660        0.190
  YS02001907           JUNCTION        0.70          0.950        0.000
  YS02001910           JUNCTION        0.52          0.980        0.120
  YS02001915           JUNCTION        0.43          0.932        0.068
  YS02001918           JUNCTION        0.34          0.810        0.000
  YS02001920           JUNCTION        0.36          1.095        0.045
  YS02001923           JUNCTION        0.01          0.817        0.003
  YS02001926           JUNCTION        0.03          0.900        0.000
  YS02001929           JUNCTION        0.01          0.780        0.000
  YS02006553           JUNCTION        0.72          1.190        0.000
  YS02006556           JUNCTION        0.61          1.350        0.000
  YS02006558           JUNCTION        0.60          1.400        0.000
  YS02006561           JUNCTION        0.39          0.869        0.281
  YS02163301           JUNCTION        5.99          1.030        0.000
  YS02163601           JUNCTION        6.01          1.080        0.000
  YS02164001           JUNCTION        5.97          0.967        0.133
  
  
  *********************
  Node Flooding Summary
  *********************
  
  Flooding refers to all water that overflows a node, whether it ponds or not.
  --------------------------------------------------------------------------
                                                             Total   Maximum
                                 Maximum   Time of Max       Flood    Ponded
                        Hours       Rate    Occurrence      Volume     Depth
  Node                 Flooded       LPS   days hr:min    10^6 ltr    Meters
  --------------------------------------------------------------------------
  WS02006252              0.01    245.63      0  00:00       0.000     0.000
  WS02006256              0.02    293.19      0  00:00       0.005     0.000
  YS02001583              0.01      0.60      0  02:07       0.000     0.000
  YS02001586              0.39    287.18      0  02:15       0.202     0.000
  YS02001590              0.01      7.14      0  02:04       0.000     0.000
  YS02001593              0.01      0.38      0  02:07       0.000     0.000
  YS02001600              0.01      3.18      0  02:04       0.000     0.000
  YS02001601              0.62    929.82      0  02:14       0.957     0.000
  YS02001602              0.60     62.04      0  02:32       0.124     0.000
  YS02001605              0.01      0.50      0  02:07       0.000     0.000
  YS02001607              0.01      0.63      0  02:07       0.000     0.000
  YS02001610              0.45    515.15      0  02:15       0.403     0.000
  YS02001613              0.01      1.63      0  02:07       0.000     0.000
  YS02001616              0.01      2.62      0  02:07       0.000     0.000
  YS02001619              0.01      1.58      0  02:11       0.000     0.000
  YS02001622              0.01      1.28      0  02:07       0.000     0.000
  YS02001625              0.56   1129.06      0  02:15       0.926     0.000
  YS02001629              0.07     99.36      0  02:12       0.014     0.000
  YS02001633              0.01      0.81      0  02:07       0.000     0.000
  YS02001641              0.01      1.46      0  02:07       0.000     0.000
  YS02001644              0.13    472.74      0  02:13       0.134     0.000
  YS02001779              0.09    167.83      0  02:08       0.030     0.000
  YS02001783              0.01     12.33      0  02:07       0.000     0.000
  YS02001784              0.01     11.60      0  02:07       0.000     0.000
  YS02001786              0.01      5.84      0  02:07       0.000     0.000
  YS02001788              0.01      1.62      0  02:07       0.000     0.000
  YS02001790              0.01      1.04      0  02:07       0.000     0.000
  YS02001890              0.10    107.58      0  02:13       0.019     0.000
  YS02001907              0.29   1405.22      0  02:13       0.773     0.000
  YS02001918              0.01    127.05      0  02:09       0.001     0.000
  YS02001926              0.01     44.84      0  02:09       0.000     0.000
  YS02001929              0.01    209.83      0  02:08       0.001     0.000
  YS02006553              0.01      4.04      0  02:07       0.000     0.000
  YS02006556              0.01     16.51      0  02:07       0.000     0.000
  YS02006558              0.01      9.37      0  02:07       0.000     0.000
  YS02163301              0.01      0.70      0  02:07       0.000     0.000
  YS02163601              0.01      0.59      0  02:07       0.000     0.000
  CC-storage              0.46    904.00      0  02:39       0.811     0.000
  JK-storage              6.04    981.38      0  02:11       2.963     0.000
  
  
  **********************
  Storage Volume Summary
  **********************
  
  ------------------------------------------------------------------------------------------------
                         Average    Avg   Evap  Exfil     Maximum    Max    Time of Max    Maximum
                          Volume   Pcnt   Pcnt   Pcnt      Volume   Pcnt     Occurrence    Outflow
  Storage Unit           1000 m³   Full   Loss   Loss     1000 m³   Full    days hr:min        LPS
  ------------------------------------------------------------------------------------------------
  CC-storage               4.857   75.8    0.0    0.0       6.410  100.0       0  02:39    1783.53
  JK-storage               0.232   79.6    0.0    0.0       0.291  100.0       0  01:57    2300.00
  XR-storage               0.033    2.3    0.0    0.0       0.600   41.7       0  00:00     380.00
  
  
  ***********************
  Outfall Loading Summary
  ***********************
  
  -----------------------------------------------------------
                         Flow       Avg       Max       Total
                         Freq      Flow      Flow      Volume
  Outfall Node           Pcnt       LPS       LPS    10^6 ltr
  -----------------------------------------------------------
  CC-1                   1.21    683.00    683.00       0.208
  CC-2                   1.21    683.00    683.00       0.208
  JK-1                   1.13    347.46   1000.00       0.079
  JK-2                   1.13    347.46   1000.00       0.079
  WSC                   99.93    566.42    818.14      14.869
  -----------------------------------------------------------
  System                20.92   2627.34   3366.35      15.444
  
  
  ********************
  Link Flow Summary
  ********************
  
  -----------------------------------------------------------------------------
                                 Maximum  Time of Max   Maximum    Max/    Max/
                                  |Flow|   Occurrence   |Veloc|    Full    Full
  Link                 Type          LPS  days hr:min     m/sec    Flow   Depth
  -----------------------------------------------------------------------------
  1                    CONDUIT    818.14     0  03:14      3.15    0.28    0.37
  WS02001211WS02001212 CONDUIT    390.85     0  02:36      0.78    0.30    0.64
  WS02001212WS02001213 CONDUIT    392.60     0  03:41      1.32    0.61    0.45
  WS02001213WS02003059 CONDUIT    395.64     0  03:40      0.85    0.65    0.75
  WS02003059WS02003060 CONDUIT    399.94     0  03:40      0.95    0.26    0.63
  WS02003060WS02003069 CONDUIT    816.04     0  03:16      1.80    0.32    0.42
  WS02003066WSF200     CONDUIT    411.88     0  03:15      2.69    0.07    0.19
  WS02003067WS02003066 CONDUIT    411.89     0  03:15      1.04    0.13    0.38
  WS02003069WS02003072 CONDUIT    816.34     0  03:17      1.55    0.39    0.47
  WS02003072WS02003073 CONDUIT    816.32     0  03:17      1.64    1.76    0.45
  WS02004138WS02004139 CONDUIT    395.20     0  00:00      3.65    0.08    0.43
  WS02004139WS02001211 CONDUIT    381.78     0  03:41      0.91    0.48    0.59
  WS02004401WS02004402 CONDUIT    411.99     0  02:02      0.99    0.49    0.77
  WS02004402WS02004403 CONDUIT    412.05     0  02:03      0.99    0.59    0.79
  WS02004403WS02004404 CONDUIT    411.99     0  03:12      0.93    0.30    0.84
  WS02004404WS02004405 CONDUIT    412.15     0  03:12      1.10    4.04    0.88
  WS02004405WS02004406 CONDUIT    412.28     0  02:03      1.03    0.81    0.88
  WS02004406WS02004407 CONDUIT    412.00     0  03:13      0.89    0.18    0.57
  WS02004407WS02004409 CONDUIT    411.95     0  03:13      1.42    0.15    0.42
  WS02004409WS02004410 CONDUIT    411.95     0  03:13      0.92    0.53    0.58
  WS02004410WS02004411 CONDUIT    411.95     0  03:14      0.85    0.56    0.60
  WS02004411WS02004412 CONDUIT    411.93     0  03:14      0.81    0.59    0.61
  WS02004412WS02004413 CONDUIT    411.99     0  03:14      0.70    0.28    0.70
  WS02004413WS02003067 CONDUIT    411.87     0  03:15      0.96    0.18    0.53
  WS02006109WS02006110 CONDUIT    411.69     0  02:16      0.84    0.79    0.94
  WS02006110WS02006113 CONDUIT    412.04     0  02:02      1.03    0.37    0.75
  WS02006111WS02006112 CONDUIT    413.76     0  02:00      1.83    0.20    0.65
  WS02006112WS02006115 CONDUIT    412.52     0  02:02      0.71    0.24    0.78
  WS02006113WS02006111 CONDUIT    423.84     0  01:58      2.25    0.51    0.40
  WS02006115WS02006116 CONDUIT    412.19     0  02:02      0.98    0.53    0.66
  WS02006116WS02004401 CONDUIT    412.10     0  02:02      1.00    0.57    0.74
  WS02006228WS02006109 CONDUIT    410.91     0  02:11      1.06    1.80    1.00
  WS02006229WS02006228 CONDUIT    411.71     0  02:11      1.13    1.36    1.00
  WS02006230WS02006229 CONDUIT    410.55     0  02:11      1.22    9.14    1.00
  WS02006231WS02006230 CONDUIT    400.31     0  02:15      1.37    6.07    0.77
  WS02006232WS02006231 CONDUIT    400.42     0  02:07      1.08    0.84    0.92
  WS02006234WS02006232 CONDUIT    400.35     0  02:15      1.40    0.81    1.00
  WS02006235WS02006234 CONDUIT    402.00     0  02:07      1.29    4.24    0.99
  WS02006238WS02006235 CONDUIT    402.21     0  03:12      1.52    0.90    1.00
  WS02006239WS02006238 CONDUIT    401.98     0  02:19      1.22    1.29    1.00
  WS02006240WS02006239 CONDUIT    400.90     0  02:17      1.31    1.26    1.00
  WS02006242WS02006240 CONDUIT    401.48     0  02:07      1.20    1.59    1.00
  WS02006243WS02006242 CONDUIT    401.40     0  02:04      1.44    0.86    1.00
  WS02006245WS02006243 CONDUIT    401.84     0  03:11      1.45    1.19    1.00
  WS02006247WS02006245 CONDUIT    403.38     0  02:10      1.43    3.20    1.00
  WS02006248WS02006247 CONDUIT    401.23     0  02:07      1.46    0.87    1.00
  WS02006249WS02006248 CONDUIT    403.56     0  02:07      1.39    2.21    1.00
  WS02006251WS02006249 CONDUIT    474.44     0  02:26      1.99    1.37    1.00
  WS02006252WS02006251 CONDUIT    404.57     0  04:26     27.89    1.48    1.00
  WS02006256WS02006235 CONDUIT    288.91     0  00:00      4.23    3.06    1.00
  WSF200WS02003060     CONDUIT    411.90     0  03:15      1.43    0.09    0.30
  YS02001580YS02001583 CONDUIT     72.06     0  02:04      0.55    0.28    1.00
  YS02001583YS02001586 CONDUIT    137.26     0  02:03      0.58    0.21    1.00
  YS02001586YS02001590 CONDUIT    318.02     0  02:12      1.26    0.56    1.00
  YS02001590YS02001593 CONDUIT    318.21     0  02:12      1.13    2.00    1.00
  YS02001593YS02001596 CONDUIT    318.16     0  02:12      1.62    0.50    1.00
  YS02001596YS02001600 CONDUIT    318.16     0  02:11      1.13    0.62    1.00
  YS02001600YS02001601 CONDUIT    318.03     0  02:12      1.12    0.55    1.00
  YS02001601YS02001602 CONDUIT    499.82     0  02:03      1.77    1.81    1.00
  YS02001602YS02001605 CONDUIT    499.70     0  02:03      1.77   10.57    1.00
  YS02001605YS02001607 CONDUIT    498.83     0  02:03      1.76    2.74    1.00
  YS02001607YS02001610 CONDUIT    494.41     0  02:02      0.63    0.47    1.00
  YS02001610YS02001613 CONDUIT    493.94     0  02:03      0.63    0.57    1.00
  YS02001613YS02001616 CONDUIT    495.67     0  02:02      0.64    0.42    1.00
  YS02001616YS02001619 CONDUIT    490.70     0  02:03      0.66    0.85    1.00
  YS02001619YS02001622 CONDUIT    934.93     0  02:07      1.19    1.38    1.00
  YS02001622YS02001625 CONDUIT    937.49     0  02:07      1.19    0.50    1.00
  YS02001625YS02001629 CONDUIT    939.08     0  02:07      1.20    0.45    1.00
  YS02001629YS02163301 CONDUIT    946.77     0  02:07      1.21    1.17    1.00
  YS02001633YS02163601 CONDUIT   1365.72     0  02:07      1.74    1.43    1.00
  YS02001641YS02001644 CONDUIT   1418.97     0  02:07      1.81    4.59    1.00
  YS02001644YS02001647 CONDUIT   1734.16     0  02:07      2.27    1.02    1.00
  YS02001647YS02001649 CONDUIT   1729.36     0  02:07      2.31    0.91    1.00
  YS02001649YS02001757 CONDUIT   1895.39     0  02:07      2.49    1.15    1.00
  YS02001652YS02001649 CONDUIT    697.00     0  02:13      0.89    0.35    1.00
  YS02001655YS02001652 CONDUIT    694.53     0  02:13      1.26    0.34    1.00
  YS02001658YS02001655 CONDUIT    692.62     0  02:13      1.85    0.29    1.00
  YS02001661YS02001658 CONDUIT    692.14     0  02:13      2.25    0.27    0.99
  YS02001664YS02001661 CONDUIT    833.51     0  02:13      2.22    0.26    0.69
  YS02001745YS02001748 CONDUIT    462.12     0  02:11      2.06    0.18    0.86
  YS02001748YS02001751 CONDUIT    406.44     0  02:13      1.62    0.21    1.00
  YS02001751YS02001754 CONDUIT    405.51     0  02:12      1.35    0.20    1.00
  YS02001754YS02001757 CONDUIT    404.48     0  02:13      0.51    0.16    1.00
  YS02001757CaochengTiaoxuchi CONDUIT   3143.75     0  02:11      4.00    1.36    1.00
  YS02001759YS02001757 CONDUIT   1261.69     0  02:12      1.61    0.90    1.00
  YS02001762YS02001759 CONDUIT    697.28     0  02:11      0.89    0.80    1.00
  YS02001765YS02001762 CONDUIT    697.78     0  02:11      0.89    0.65    1.00
  YS02001767YS02001765 CONDUIT    698.45     0  02:11      0.89    0.88    1.00
  YS02001770YS02001767 CONDUIT    698.58     0  02:11      0.89    2.77    1.00
  YS02001774YS02001770 CONDUIT    270.73     0  02:08      0.34    0.17    1.00
  YS02001779YS02001774 CONDUIT    271.49     0  02:08      0.35    0.14    1.00
  YS02001783YS02001784 CONDUIT    976.33     0  02:12      1.94    1.35    1.00
  YS02001784YS02001785 CONDUIT    977.53     0  02:12      1.94    2.27    1.00
  YS02001786YS02001788 CONDUIT    977.52     0  02:12      1.96    1.88    1.00
  YS02001788YS02001790 CONDUIT    977.48     0  02:12      2.02    0.72    1.00
  YS02001790YS02001791 CONDUIT    978.48     0  02:11      2.37    1.06    1.00
  YS02001791YS02001793 CONDUIT    979.71     0  02:11      4.52    0.42    1.00
  YS02001793JiankangQianchi CONDUIT    981.78     0  02:11      1.54    0.08    1.00
  YS02001882YS02001884 CONDUIT     31.20     0  02:05      0.13    0.04    1.00
  YS02001884YS02001887 CONDUIT     70.77     0  02:05      0.09    0.09    1.00
  YS02001887YS02001890 CONDUIT    618.83     0  02:13      0.79    1.06    1.00
  YS02001890YS02001895 CONDUIT    516.52     0  02:15      0.66    0.24    1.00
  YS02001895YS02001898 CONDUIT    516.88     0  02:15      0.66    0.90    1.00
  YS02001898YS02001901 CONDUIT    516.62     0  02:15      0.66    0.33    1.00
  YS02001901YS02001904 CONDUIT    516.38     0  02:15      0.66    0.80    1.00
  YS02001904YS02001907 CONDUIT    516.40     0  02:15      0.66    0.18    1.00
  YS02001907YS02006553 CONDUIT    675.89     0  02:27      0.75    0.80    1.00
  YS02001910YS02001907 CONDUIT   1068.29     0  02:13      1.36    0.60    1.00
  YS02001915YS02001910 CONDUIT   1068.66     0  02:13      1.36    0.53    1.00
  YS02001918YS02001915 CONDUIT    461.45     0  02:09      0.59    0.25    1.00
  YS02001920YS02001918 CONDUIT    459.03     0  02:09      0.63    0.44    1.00
  YS02001923YS02001920 CONDUIT    454.19     0  02:09      0.71    0.20    1.00
  YS02001926YS02001923 CONDUIT    443.33     0  02:08      0.94    0.63    1.00
  YS02001929YS02001926 CONDUIT    411.62     0  02:09      1.09    0.20    1.00
  YS02006553YS02006556 CONDUIT    676.22     0  02:27      0.86    0.58    1.00
  YS02006556YS02006558 CONDUIT    678.35     0  02:27      0.86    0.54    1.00
  YS02006558YS02006561 CONDUIT    976.99     0  02:11      3.46    2.16    1.00
  YS02006561YS02001783 CONDUIT    976.58     0  02:11      2.00    0.51    1.00
  YS02163301YS02001633 CONDUIT    948.11     0  02:07      1.21    0.89    1.00
  YS02163601YS02164001 CONDUIT   1367.10     0  02:07      1.74    1.21    1.00
  YS02164001YS02001641 CONDUIT   1377.09     0  02:07      1.75    1.88    1.00
  CC-R1                PUMP       683.00     0  00:00              1.00
  CC-R2                PUMP       683.00     0  00:00              1.00
  CC-S1                PUMP       200.00     0  00:00              1.00
  CC-S2                PUMP       200.00     0  00:00              1.00
  JK-R1                PUMP      1000.00     0  00:00              1.00
  JK-R2                PUMP      1000.00     0  00:00              1.00
  JK-S                 PUMP       300.00     0  00:00              1.00
  XR-1                 PUMP        95.00     0  00:00              1.00
  XR-2                 PUMP        95.00     0  00:00              1.00
  XR-3                 PUMP        95.00     0  00:00              1.00
  XR-4                 PUMP        95.00     0  00:00              1.00
  
  
  ***************************
  Flow Classification Summary
  ***************************
  
  -------------------------------------------------------------------------------------
                      Adjusted    ---------- Fraction of Time in Flow Class ---------- 
                       /Actual         Up    Down  Sub   Sup   Up    Down  Norm  Inlet 
  Conduit               Length    Dry  Dry   Dry   Crit  Crit  Crit  Crit  Ltd   Ctrl  
  -------------------------------------------------------------------------------------
  1                       1.00   0.00  0.00  0.00  0.00  1.00  0.00  0.00  0.26  0.00
  WS02001211WS02001212    1.00   0.00  0.00  0.00  1.00  0.00  0.00  0.00  0.00  0.00
  WS02001212WS02001213    1.00   0.00  0.00  0.00  0.51  0.00  0.48  0.00  0.00  0.00
  WS02001213WS02003059    1.00   0.00  0.00  0.00  0.99  0.00  0.00  0.00  0.00  0.00
  WS02003059WS02003060    1.00   0.00  0.00  0.00  1.00  0.00  0.00  0.00  0.00  0.00
  WS02003060WS02003069    1.00   0.00  0.00  0.00  0.99  0.01  0.00  0.00  0.00  0.00
  WS02003066WSF200        1.00   0.02  0.10  0.00  0.00  0.88  0.00  0.00  0.86  0.00
  WS02003067WS02003066    1.00   0.10  0.02  0.00  0.89  0.00  0.00  0.00  0.00  0.00
  WS02003069WS02003072    1.00   0.00  0.00  0.00  0.99  0.01  0.00  0.00  0.00  0.00
  WS02003072WS02003073    1.00   0.00  0.00  0.00  0.00  0.00  0.00  1.00  0.00  0.00
  WS02004138WS02004139    1.00   0.00  0.00  0.00  0.99  0.01  0.00  0.00  1.00  0.00
  WS02004139WS02001211    1.00   0.00  0.00  0.00  1.00  0.00  0.00  0.00  0.00  0.00
  WS02004401WS02004402    1.00   0.02  0.00  0.00  0.98  0.00  0.00  0.00  0.00  0.00
  WS02004402WS02004403    1.00   0.02  0.00  0.00  0.98  0.00  0.00  0.00  0.00  0.00
  WS02004403WS02004404    1.00   0.00  0.03  0.00  0.97  0.00  0.00  0.00  0.00  0.00
  WS02004404WS02004405    1.00   0.00  0.00  0.00  1.00  0.00  0.00  0.00  0.01  0.00
  WS02004405WS02004406    1.00   0.00  0.00  0.00  1.00  0.00  0.00  0.00  0.00  0.00
  WS02004406WS02004407    1.00   0.00  0.05  0.00  0.95  0.00  0.00  0.00  0.00  0.00
  WS02004407WS02004409    1.00   0.05  0.00  0.00  0.94  0.01  0.00  0.00  0.94  0.00
  WS02004409WS02004410    1.00   0.05  0.00  0.00  0.95  0.00  0.00  0.00  0.02  0.00
  WS02004410WS02004411    1.00   0.05  0.00  0.00  0.95  0.00  0.00  0.00  0.00  0.00
  WS02004411WS02004412    1.00   0.05  0.00  0.00  0.95  0.00  0.00  0.00  0.00  0.00
  WS02004412WS02004413    1.00   0.05  0.00  0.00  0.94  0.00  0.00  0.00  0.01  0.00
  WS02004413WS02003067    1.00   0.06  0.04  0.00  0.00  0.00  0.90  0.00  0.00  0.00
  WS02006109WS02006110    1.00   0.00  0.01  0.00  0.98  0.00  0.01  0.00  0.00  0.00
  WS02006110WS02006113    1.00   0.01  0.01  0.00  0.98  0.00  0.00  0.00  0.00  0.00
  WS02006111WS02006112    1.00   0.02  0.00  0.00  0.98  0.00  0.00  0.00  0.98  0.00
  WS02006112WS02006115    1.00   0.02  0.00  0.00  0.97  0.00  0.00  0.00  0.00  0.00
  WS02006113WS02006111    1.00   0.02  0.00  0.00  0.00  0.98  0.00  0.00  0.15  0.00
  WS02006115WS02006116    1.00   0.02  0.00  0.00  0.97  0.00  0.00  0.01  0.00  0.00
  WS02006116WS02004401    1.00   0.02  0.00  0.00  0.98  0.00  0.00  0.00  0.00  0.00
  WS02006228WS02006109    1.00   0.00  0.00  0.00  1.00  0.00  0.00  0.00  0.01  0.00
  WS02006229WS02006228    1.00   0.00  0.00  0.00  0.99  0.00  0.00  0.01  0.00  0.00
  WS02006230WS02006229    1.00   0.00  0.00  0.00  0.99  0.00  0.00  0.01  0.00  0.00
  WS02006231WS02006230    1.00   0.00  0.00  0.00  0.22  0.00  0.78  0.00  0.00  0.00
  WS02006232WS02006231    1.00   0.00  0.00  0.00  0.99  0.00  0.01  0.00  0.00  0.00
  WS02006234WS02006232    1.00   0.00  0.00  0.00  1.00  0.00  0.00  0.00  0.37  0.00
  WS02006235WS02006234    1.00   0.00  0.00  0.00  0.57  0.00  0.43  0.00  0.00  0.00
  WS02006238WS02006235    1.00   0.00  0.00  0.00  1.00  0.00  0.00  0.00  0.00  0.00
  WS02006239WS02006238    1.00   0.00  0.00  0.00  1.00  0.00  0.00  0.00  0.52  0.00
  WS02006240WS02006239    1.00   0.00  0.00  0.00  0.43  0.00  0.00  0.57  0.02  0.00
  WS02006242WS02006240    1.00   0.00  0.00  0.00  0.99  0.00  0.01  0.00  0.00  0.00
  WS02006243WS02006242    1.00   0.00  0.00  0.00  0.99  0.00  0.00  0.01  0.64  0.00
  WS02006245WS02006243    1.00   0.00  0.00  0.00  0.51  0.00  0.00  0.49  0.00  0.00
  WS02006247WS02006245    1.00   0.00  0.00  0.00  0.99  0.00  0.00  0.01  0.00  0.00
  WS02006248WS02006247    1.00   0.00  0.00  0.00  0.99  0.00  0.00  0.01  0.19  0.00
  WS02006249WS02006248    1.00   0.00  0.00  0.00  0.35  0.00  0.65  0.00  0.00  0.00
  WS02006251WS02006249    1.00   0.00  0.00  0.00  0.99  0.00  0.00  0.00  0.66  0.00
  WS02006252WS02006251    1.00   0.00  0.29  0.00  0.00  0.00  0.71  0.00  0.10  0.00
  WS02006256WS02006235    1.00   0.00  0.00  0.00  1.00  0.00  0.00  0.00  0.00  0.00
  WSF200WS02003060        1.00   0.00  0.02  0.00  0.98  0.00  0.00  0.00  0.70  0.00
  YS02001580YS02001583    1.00   0.25  0.55  0.00  0.19  0.00  0.00  0.00  0.64  0.00
  YS02001583YS02001586    1.00   0.48  0.28  0.00  0.24  0.00  0.00  0.00  0.65  0.00
  YS02001586YS02001590    1.00   0.13  0.00  0.00  0.41  0.04  0.00  0.43  0.33  0.00
  YS02001590YS02001593    1.00   0.13  0.01  0.00  0.13  0.00  0.73  0.00  0.00  0.00
  YS02001593YS02001596    1.00   0.13  0.00  0.00  0.76  0.00  0.00  0.10  0.63  0.00
  YS02001596YS02001600    1.00   0.13  0.00  0.00  0.80  0.01  0.00  0.06  0.03  0.00
  YS02001600YS02001601    1.00   0.13  0.01  0.00  0.86  0.00  0.00  0.00  0.04  0.00
  YS02001601YS02001602    1.00   0.13  0.01  0.00  0.87  0.00  0.00  0.00  0.00  0.00
  YS02001602YS02001605    1.00   0.13  0.00  0.00  0.87  0.00  0.00  0.00  0.00  0.00
  YS02001605YS02001607    1.00   0.14  0.00  0.00  0.86  0.00  0.00  0.00  0.00  0.00
  YS02001607YS02001610    1.00   0.13  0.01  0.00  0.86  0.00  0.00  0.00  0.01  0.00
  YS02001610YS02001613    1.00   0.13  0.00  0.00  0.87  0.00  0.00  0.00  0.00  0.00
  YS02001613YS02001616    1.00   0.13  0.00  0.00  0.87  0.00  0.00  0.00  0.00  0.00
  YS02001616YS02001619    1.00   0.13  0.00  0.00  0.87  0.00  0.00  0.00  0.00  0.00
  YS02001619YS02001622    1.00   0.13  0.00  0.00  0.87  0.00  0.00  0.00  0.00  0.00
  YS02001622YS02001625    1.00   0.13  0.00  0.00  0.87  0.00  0.00  0.00  0.04  0.00
  YS02001625YS02001629    1.00   0.13  0.05  0.00  0.77  0.00  0.05  0.00  0.00  0.00
  YS02001629YS02163301    1.00   0.15  0.01  0.00  0.84  0.00  0.00  0.00  0.00  0.00
  YS02001633YS02163601    1.00   0.00  0.01  0.00  0.99  0.00  0.00  0.00  0.15  0.00
  YS02001641YS02001644    1.00   0.00  0.01  0.00  0.99  0.00  0.00  0.00  0.00  0.00
  YS02001644YS02001647    1.00   0.00  0.17  0.00  0.83  0.00  0.00  0.00  0.00  0.00
  YS02001647YS02001649    1.00   0.00  0.17  0.00  0.79  0.04  0.00  0.00  0.02  0.00
  YS02001649YS02001757    1.00   0.00  0.00  0.00  0.95  0.05  0.00  0.00  0.18  0.00
  YS02001652YS02001649    1.00   0.00  0.00  0.00  0.97  0.03  0.00  0.00  0.17  0.00
  YS02001655YS02001652    1.00   0.00  0.00  0.00  0.77  0.01  0.00  0.22  0.02  0.00
  YS02001658YS02001655    1.00   0.00  0.14  0.00  0.74  0.12  0.00  0.00  0.06  0.00
  YS02001661YS02001658    1.00   0.14  0.00  0.00  0.73  0.13  0.00  0.00  0.04  0.00
  YS02001664YS02001661    1.00   0.13  0.00  0.00  0.81  0.06  0.00  0.00  0.85  0.00
  YS02001745YS02001748    1.00   0.00  0.00  0.00  0.73  0.00  0.00  0.27  0.00  0.00
  YS02001748YS02001751    1.00   0.00  0.00  0.00  0.87  0.13  0.00  0.00  0.13  0.00
  YS02001751YS02001754    1.00   0.00  0.00  0.00  0.75  0.01  0.00  0.24  0.01  0.00
  YS02001754YS02001757    1.00   0.00  0.00  0.00  1.00  0.00  0.00  0.00  0.24  0.00
  YS02001757CaochengTiaoxuchi    1.00   0.00  0.00  0.00  1.00  0.00  0.00  0.00  0.22  0.00
  YS02001759YS02001757    1.00   0.00  0.00  0.00  1.00  0.00  0.00  0.00  0.06  0.00
  YS02001762YS02001759    1.00   0.00  0.00  0.00  1.00  0.00  0.00  0.00  0.03  0.00
  YS02001765YS02001762    1.00   0.00  0.00  0.00  1.00  0.00  0.00  0.00  0.15  0.00
  YS02001767YS02001765    1.00   0.00  0.00  0.00  1.00  0.00  0.00  0.00  0.00  0.00
  YS02001770YS02001767    1.00   0.00  0.00  0.00  1.00  0.00  0.00  0.00  0.00  0.00
  YS02001774YS02001770    1.00   0.00  0.13  0.00  0.87  0.00  0.00  0.00  0.03  0.00
  YS02001779YS02001774    1.00   0.00  0.00  0.00  1.00  0.00  0.00  0.00  0.18  0.00
  YS02001783YS02001784    1.00   0.00  0.18  0.00  0.82  0.00  0.00  0.00  0.00  0.00
  YS02001784YS02001785    1.00   0.00  0.00  0.00  1.00  0.00  0.00  0.00  0.17  0.00
  YS02001786YS02001788    1.00   0.00  0.00  0.00  0.95  0.05  0.00  0.00  0.00  0.00
  YS02001788YS02001790    1.00   0.00  0.00  0.00  0.94  0.06  0.00  0.00  0.19  0.00
  YS02001790YS02001791    1.00   0.00  0.00  0.00  0.77  0.23  0.00  0.00  0.04  0.00
  YS02001791YS02001793    1.00   0.00  0.00  0.00  0.76  0.24  0.00  0.00  0.00  0.00
  YS02001793JiankangQianchi    1.00   0.00  0.00  0.00  0.93  0.06  0.00  0.00  0.21  0.00
  YS02001882YS02001884    1.00   0.15  0.01  0.00  0.84  0.00  0.00  0.00  0.00  0.00
  YS02001884YS02001887    1.00   0.06  0.05  0.00  0.89  0.00  0.00  0.00  0.00  0.00
  YS02001887YS02001890    1.00   0.00  0.00  0.00  0.97  0.00  0.03  0.00  0.00  0.00
  YS02001890YS02001895    1.00   0.00  0.16  0.00  0.84  0.00  0.00  0.00  0.00  0.00
  YS02001895YS02001898    1.00   0.16  0.00  0.00  0.82  0.00  0.02  0.00  0.00  0.00
  YS02001898YS02001901    1.00   0.16  0.00  0.00  0.84  0.00  0.00  0.00  0.01  0.00
  YS02001901YS02001904    1.00   0.16  0.00  0.00  0.84  0.00  0.00  0.00  0.00  0.00
  YS02001904YS02001907    1.00   0.00  0.16  0.00  0.84  0.00  0.00  0.00  0.00  0.00
  YS02001907YS02006553    1.00   0.00  0.02  0.00  0.98  0.00  0.00  0.00  0.00  0.00
  YS02001910YS02001907    1.00   0.00  0.00  0.00  0.97  0.00  0.00  0.03  0.12  0.00
  YS02001915YS02001910    1.00   0.00  0.00  0.00  0.97  0.03  0.00  0.00  0.16  0.00
  YS02001918YS02001915    1.00   0.00  0.01  0.00  0.98  0.02  0.00  0.00  0.76  0.00
  YS02001920YS02001918    1.00   0.00  0.01  0.00  0.99  0.00  0.00  0.00  0.00  0.00
  YS02001923YS02001920    1.00   0.00  0.00  0.00  1.00  0.00  0.00  0.00  0.93  0.00
  YS02001926YS02001923    1.00   0.00  0.07  0.00  0.06  0.00  0.87  0.00  0.00  0.00
  YS02001929YS02001926    1.00   0.00  0.13  0.00  0.87  0.00  0.00  0.00  0.83  0.00
  YS02006553YS02006556    1.00   0.01  0.00  0.00  0.99  0.00  0.00  0.00  0.03  0.00
  YS02006556YS02006558    1.00   0.00  0.00  0.00  1.00  0.00  0.00  0.00  0.00  0.00
  YS02006558YS02006561    1.00   0.18  0.00  0.00  0.07  0.75  0.00  0.00  0.18  0.00
  YS02006561YS02001783    1.00   0.18  0.00  0.00  0.76  0.07  0.00  0.00  0.72  0.00
  YS02163301YS02001633    1.00   0.00  0.15  0.00  0.85  0.00  0.00  0.00  0.00  0.00
  YS02163601YS02164001    1.00   0.00  0.08  0.00  0.92  0.00  0.00  0.00  0.00  0.00
  YS02164001YS02001641    1.00   0.01  0.07  0.00  0.92  0.00  0.00  0.00  0.05  0.00
  
  
  *************************
  Conduit Surcharge Summary
  *************************
  
  ----------------------------------------------------------------------------
                                                           Hours        Hours 
                         --------- Hours Full --------   Above Full   Capacity
  Conduit                Both Ends  Upstream  Dnstream   Normal Flow   Limited
  ----------------------------------------------------------------------------
  WS02003072WS02003073        0.01      0.01      0.01      2.99         0.01
  WS02004404WS02004405        0.01      0.01      0.01      2.64         0.01
  WS02006109WS02006110        0.01      0.01      1.60      0.01         0.01
  WS02006110WS02006113        0.01      0.01      1.55      0.01         0.01
  WS02006111WS02006112        0.01      0.01      1.77      0.01         0.01
  WS02006228WS02006109        1.49      1.60      1.49      2.06         1.49
  WS02006229WS02006228        1.47      1.51      1.47      1.85         1.47
  WS02006230WS02006229        1.71      1.76      1.71      3.01         1.71
  WS02006231WS02006230        0.01      0.01      0.01      2.79         0.01
  WS02006232WS02006231        0.01      0.01      1.62      0.01         0.01
  WS02006234WS02006232        1.42      1.42      1.62      0.01         0.01
  WS02006235WS02006234        0.01      0.01      1.51      2.61         0.01
  WS02006238WS02006235        1.52      1.52      1.63      0.01         0.01
  WS02006239WS02006238        1.55      1.61      1.55      1.93         1.55
  WS02006240WS02006239        1.52      1.54      1.52      1.96         1.52
  WS02006242WS02006240        1.52      1.52      1.72      2.11         0.01
  WS02006243WS02006242        1.57      1.57      1.67      0.01         0.01
  WS02006245WS02006243        1.55      1.57      1.55      2.07         1.54
  WS02006247WS02006245        1.55      1.60      1.55      2.27         1.55
  WS02006248WS02006247        1.56      1.56      1.58      0.01         0.01
  WS02006249WS02006248        1.54      1.54      1.57      2.24         0.01
  WS02006251WS02006249        1.57      1.59      1.57      2.20         1.57
  WS02006252WS02006251        2.26      2.26      2.26      2.26         0.01
  WS02006256WS02006235        2.72      2.72      3.84      0.02         0.01
  YS02001580YS02001583        0.52      0.52      0.56      0.01         0.01
  YS02001583YS02001586        0.52      0.52      0.73      0.01         0.01
  YS02001586YS02001590        0.73      0.73      0.83      0.01         0.01
  YS02001590YS02001593        0.84      0.84      0.85      0.80         0.01
  YS02001593YS02001596        0.85      0.85      1.03      0.01         0.01
  YS02001596YS02001600        1.11      1.11      1.42      0.01         0.01
  YS02001600YS02001601        2.74      2.74      6.28      0.01         0.01
  YS02001601YS02001602        6.22      6.22      6.30      1.02         0.01
  YS02001602YS02001605        6.19      6.19      6.22      2.16         0.41
  YS02001605YS02001607        6.15      6.19      6.15      1.33         1.19
  YS02001607YS02001610        1.06      1.06      1.32      0.01         0.01
  YS02001610YS02001613        1.09      1.09      1.32      0.01         0.01
  YS02001613YS02001616        0.99      0.99      1.09      0.01         0.01
  YS02001616YS02001619        0.98      0.98      0.99      0.01         0.01
  YS02001619YS02001622        0.98      0.98      0.99      0.60         0.56
  YS02001622YS02001625        0.99      0.99      5.99      0.01         0.01
  YS02001625YS02001629        0.96      0.96      5.99      0.01         0.01
  YS02001629YS02163301        5.99      5.99      5.99      0.08         0.07
  YS02001633YS02163601        6.00      6.00      6.01      0.12         0.13
  YS02001641YS02001644        5.95      5.97      5.95      1.36         1.15
  YS02001644YS02001647        5.87      5.87      5.95      0.02         0.01
  YS02001647YS02001649        5.87      5.87      5.88      0.01         0.01
  YS02001649YS02001757        5.88      5.88      5.88      0.11         0.05
  YS02001652YS02001649        5.86      5.86      5.88      0.01         0.01
  YS02001655YS02001652        0.88      0.88      5.85      0.01         0.01
  YS02001658YS02001655        0.17      0.17      0.88      0.01         0.01
  YS02001661YS02001658        0.01      0.01      0.17      0.01         0.01
  YS02001664YS02001661        0.01      0.01      0.02      0.01         0.01
  YS02001745YS02001748        0.01      0.01      0.10      0.01         0.01
  YS02001748YS02001751        0.15      0.15      0.77      0.01         0.01
  YS02001751YS02001754        0.77      0.77      5.85      0.01         0.01
  YS02001754YS02001757        5.85      5.85      5.88      0.01         0.01
  YS02001757CaochengTiaoxuchi        5.88      5.88      5.90      0.26         0.23
  YS02001759YS02001757        5.87      5.87      5.88      0.01         0.01
  YS02001762YS02001759        5.86      5.86      5.87      0.01         0.01
  YS02001765YS02001762        5.86      5.86      5.86      0.01         0.01
  YS02001767YS02001765        5.86      5.86      5.86      0.01         0.02
  YS02001770YS02001767        5.86      5.86      5.86      0.42         0.50
  YS02001774YS02001770        5.86      5.86      5.86      0.01         0.01
  YS02001779YS02001774        5.54      5.54      5.86      0.01         0.01
  YS02001783YS02001784        0.70      0.70      0.71      0.54         0.56
  YS02001784YS02001785        0.70      0.71      0.70      0.82         0.70
  YS02001786YS02001788        0.70      0.70      0.70      0.73         0.70
  YS02001788YS02001790        0.70      0.70      6.05      0.01         0.01
  YS02001790YS02001791        6.05      6.05      6.06      0.33         0.33
  YS02001791YS02001793        6.06      6.06      6.10      0.01         0.01
  YS02001793JiankangQianchi        6.08      6.08      6.34      0.01         0.01
  YS02001882YS02001884        0.44      0.44      0.45      0.01         0.01
  YS02001884YS02001887        0.47      0.47      0.48      0.01         0.01
  YS02001887YS02001890        0.50      0.50      0.51      0.04         0.01
  YS02001890YS02001895        0.43      0.43      0.52      0.01         0.01
  YS02001895YS02001898        0.42      0.42      0.43      0.01         0.01
  YS02001898YS02001901        0.43      0.43      0.47      0.01         0.01
  YS02001901YS02001904        0.46      0.46      0.47      0.01         0.01
  YS02001904YS02001907        0.46      0.46      0.72      0.01         0.01
  YS02001907YS02006553        0.85      0.85      0.91      0.01         0.01
  YS02001910YS02001907        0.52      0.52      0.70      0.01         0.01
  YS02001915YS02001910        0.43      0.43      0.52      0.01         0.01
  YS02001918YS02001915        0.34      0.34      0.43      0.01         0.01
  YS02001920YS02001918        0.34      0.34      0.36      0.01         0.01
  YS02001923YS02001920        0.29      0.29      0.36      0.01         0.01
  YS02001926YS02001923        0.01      0.01      0.03      0.01         0.01
  YS02001929YS02001926        0.01      0.01      0.03      0.01         0.01
  YS02006553YS02006556        0.61      0.61      0.72      0.01         0.01
  YS02006556YS02006558        0.65      0.65      0.73      0.01         0.01
  YS02006558YS02006561        0.47      0.60      0.47      0.79         0.47
  YS02006561YS02001783        0.39      0.39      0.70      0.01         0.01
  YS02163301YS02001633        5.99      5.99      6.01      0.01         0.01
  YS02163601YS02164001        5.97      5.97      6.01      0.09         0.01
  YS02164001YS02001641        5.97      5.97      5.97      0.55         0.48
  
  
  ***************
  Pumping Summary
  ***************
  
  ---------------------------------------------------------------------------------------------------------
                                                  Min       Avg       Max     Total     Power    % Time Off
                        Percent   Number of      Flow      Flow      Flow    Volume     Usage    Pump Curve
  Pump                 Utilized   Start-Ups       LPS       LPS       LPS  10^6 ltr     Kw-hr    Low   High
  ---------------------------------------------------------------------------------------------------------
  CC-R1                    1.06           1      0.00    683.00    683.00     0.208      3.51    0.0  100.0
  CC-R2                    1.06           1      0.00    683.00    683.00     0.208      3.51    0.0  100.0
  CC-S1                   28.27           6      0.00    200.00    200.00     1.628      7.54    0.0   54.6
  CC-S2                   28.27           6      0.00    200.00    200.00     1.628      7.54    0.0   54.6
  JK-R1                    0.97           2      0.00    347.46   1000.00     0.078      0.47    0.0    0.0
  JK-R2                    0.97           2      0.00    347.46   1000.00     0.078      0.47    0.0    0.0
  JK-S                     0.97           2      0.00    104.30    300.00     0.023      0.44    0.0    0.0
  XR-1                   100.00           1      0.00     95.00     95.00     2.736     68.18    0.0    0.0
  XR-2                   100.00           1      0.00     95.00     95.00     2.736     68.18    0.0    0.0
  XR-3                   100.00           1      0.00     95.00     95.00     2.736     68.18    0.0    0.0
  XR-4                   100.00           1      0.00     95.00     95.00     2.736     68.18    0.0    0.0
  

  Analysis begun on:  Wed Nov  5 16:29:43 2025
  Analysis ended on:  Wed Nov  5 16:29:46 2025
  Total elapsed time: 00:00:03