
  EPA STORM WATER MANAGEMENT MODEL - VERSION 5.2 (Build 5.2.4)
  PYSWMM TOOLKIT API - VERSION v1.0 (2023-11-27)
  ------------------------------------------------------------

  WARNING 04: minimum elevation drop used for Conduit WS02004404WS02004405
  WARNING 03: negative offset ignored for Link YS02001904YS02001907
  
  ****************
  Analysis Options
  ****************
  Flow Units ............... LPS
  Process Models:
    Rainfall/Runoff ........ YES
    RDII ................... NO
    Snowmelt ............... NO
    Groundwater ............ NO
    Flow Routing ........... YES
    Ponding Allowed ........ NO
    Water Quality .......... NO
  Infiltration Method ...... HORTON
  Flow Routing Method ...... DYNWAVE
  Surcharge Method ......... EXTRAN
  Starting Date ............ 08/28/2015 08:00:00
  Ending Date .............. 08/28/2015 16:00:00
  Antecedent Dry Days ...... 8.0
  Report Time Step ......... 00:01:00
  Wet Time Step ............ 00:01:00
  Dry Time Step ............ 00:01:00
  Routing Time Step ........ 30.00 sec
  Variable Time Step ....... YES
  Maximum Trials ........... 8
  Number of Threads ........ 4
  Head Tolerance ........... 0.001500 m
  
  
  **************************        Volume         Depth
  Runoff Quantity Continuity     hectare-m            mm
  **************************     ---------       -------
  Initial LID Storage ......         0.049         1.488
  Total Precipitation ......         2.177        65.628
  Evaporation Loss .........         0.000         0.000
  Infiltration Loss ........         0.076         2.294
  Surface Runoff ...........         1.617        48.736
  Final Storage ............         0.534        16.110
  Continuity Error (%) .....        -0.035
  
  
  **************************        Volume        Volume
  Flow Routing Continuity        hectare-m      10^6 ltr
  **************************     ---------     ---------
  Dry Weather Inflow .......         0.602         6.020
  Wet Weather Inflow .......         1.616        16.164
  Groundwater Inflow .......         0.000         0.000
  RDII Inflow ..............         0.000         0.000
  External Inflow ..........         0.105         1.045
  External Outflow .........         1.508        15.079
  Flooding Loss ............         0.750         7.505
  Evaporation Loss .........         0.000         0.000
  Exfiltration Loss ........         0.000         0.000
  Initial Stored Volume ....         0.303         3.031
  Final Stored Volume ......         0.825         8.250
  Continuity Error (%) .....       -17.415
  
  
  *************************
  Highest Continuity Errors
  *************************
  Node YS02001774 (19.14%)
  Node YS02001583 (-7.58%)
  Node WS02006256 (-6.10%)
  Node YS02001884 (4.70%)
  Node YS02001754 (3.63%)
  
  
  ***************************
  Time-Step Critical Elements
  ***************************
  Link WS02001212WS02001213 (34.48%)
  Link WS02006238WS02006235 (21.06%)
  Link WS02006235WS02006234 (18.50%)
  Link YS02006556YS02006558 (5.91%)
  Link WS02003066WSF200 (5.51%)
  
  
  ********************************
  Highest Flow Instability Indexes
  ********************************
  Link WS02006113WS02006111 (41)
  Link WS02006111WS02006112 (29)
  Link WS02006256WS02006235 (29)
  Link WS02006238WS02006235 (26)
  Link YS02001607YS02001610 (22)
  
  
  *********************************
  Most Frequent Nonconverging Nodes
  *********************************
  Node CC-1 (12.44%)
  Node CC-2 (12.44%)
  Node JK-1 (12.44%)
  Node JK-2 (12.44%)
  Node WSC (12.44%)
  
  
  *************************
  Routing Time Step Summary
  *************************
  Minimum Time Step           :     0.04 sec
  Average Time Step           :     3.73 sec
  Maximum Time Step           :     6.46 sec
  % of Time in Steady State   :     0.00
  Average Iterations per Step :     3.41
  % of Steps Not Converging   :    12.44
  Time Step Frequencies       :
     30.000 - 13.228 sec      :     0.00 %
     13.228 -  5.833 sec      :    33.21 %
      5.833 -  2.572 sec      :    36.31 %
      2.572 -  1.134 sec      :    21.79 %
      1.134 -  0.500 sec      :     8.70 %
  
  
  ***************************
  Subcatchment Runoff Summary
  ***************************
  
  ------------------------------------------------------------------------------------------------------------------------------
                            Total      Total      Total      Total     Imperv       Perv      Total       Total     Peak  Runoff
                           Precip      Runon       Evap      Infil     Runoff     Runoff     Runoff      Runoff   Runoff   Coeff
  Subcatchment                 mm         mm         mm         mm         mm         mm         mm    10^6 ltr      LPS
  ------------------------------------------------------------------------------------------------------------------------------
  sub60                     65.63       0.00       0.00       1.37      43.65       4.71      48.36        0.64   473.97   0.737
  sub61                     65.63       0.00       0.00       2.10      43.61       7.03      50.64        0.93   690.28   0.772
  sub62                     65.63       0.00       0.00       0.93      46.49       3.20      49.69        1.36   948.57   0.757
  sub63                     65.63       0.00       0.00       3.83      37.35      11.75      49.10        1.11   782.44   0.748
  sub64                     65.63       0.00       0.00       1.84      42.53       5.83      48.36        1.16   772.70   0.737
  sub65                     65.63       0.00       0.00       1.69      45.90       5.32      51.23        1.41   899.18   0.781
  sub66                     65.63       0.00       0.00       4.48      36.12      10.61      46.73        2.18  1160.19   0.712
  sub67                     65.63       0.00       0.00       0.92      47.66       3.31      50.97        0.95   741.53   0.777
  sub68                     65.63       0.00       0.00       1.61      42.10       5.39      47.49        1.31   943.60   0.724
  sub69                     65.63       0.00       0.00       1.46      44.13       6.34      50.47        1.87  1163.68   0.769
  sub70                     65.63       0.00       0.00       4.94      35.36      13.32      48.68        1.41   665.92   0.742
  sub71                     65.63       0.00       0.00       0.86      42.23       2.90      45.13        1.18   781.34   0.688
  sub72                     65.63       0.00       0.00       0.82      45.62       2.70      48.32        0.66   400.10   0.736
  

  ***********************
  LID Performance Summary
  ***********************

  --------------------------------------------------------------------------------------------------------------------
                                         Total      Evap     Infil   Surface    Drain    Initial     Final  Continuity
                                        Inflow      Loss      Loss   Outflow   Outflow   Storage   Storage       Error
  Subcatchment      LID Control             mm        mm        mm        mm        mm        mm        mm           %
  --------------------------------------------------------------------------------------------------------------------
  sub60             GreenRoof            65.63      0.00      0.00      0.00      0.00      7.05     72.73       -0.07
  sub61             GreenRoof            65.63      0.00      0.00      0.00      0.00      7.05     72.73       -0.07
  sub62             GreenRoof            65.63      0.00      0.00      0.00      0.00      7.05     72.73       -0.07
  sub63             GreenRoof            65.63      0.00      0.00      0.00      0.00      7.05     72.73       -0.07
  sub64             GreenRoof            65.63      0.00      0.00      0.00      0.00      7.05     72.73       -0.07
  sub65             GreenRoof            65.63      0.00      0.00      0.00      0.00      7.05     72.73       -0.07
  sub66             GreenRoof            65.63      0.00      0.00      0.00      0.00      7.05     72.73       -0.07
  sub67             GreenRoof            65.63      0.00      0.00      0.00      0.00      7.05     72.73       -0.07
  sub68             GreenRoof            65.63      0.00      0.00      0.00      0.00      7.05     72.73       -0.07
  sub69             GreenRoof            65.63      0.00      0.00      0.00      0.00      7.05     72.73       -0.07
  sub70             GreenRoof            65.63      0.00      0.00      0.00      0.00      7.05     72.73       -0.07
  sub71             GreenRoof            65.63      0.00      0.00      0.00      0.00      7.05     72.73       -0.07
  sub72             GreenRoof            65.63      0.00      0.00      0.00      0.00      7.05     72.73       -0.07
  
  ******************
  Node Depth Summary
  ******************
  
  ---------------------------------------------------------------------------------
                                 Average  Maximum  Maximum  Time of Max    Reported
                                   Depth    Depth      HGL   Occurrence   Max Depth
  Node                 Type       Meters   Meters   Meters  days hr:min      Meters
  ---------------------------------------------------------------------------------
  WS02001211           JUNCTION     0.76     0.78     5.62     0  03:05        0.78
  WS02001212           JUNCTION     0.46     0.49     5.55     0  03:04        0.49
  WS02001213           JUNCTION     0.68     0.73     5.49     0  03:04        0.73
  WS02003059           JUNCTION     0.73     0.78     5.47     0  03:03        0.78
  WS02003060           JUNCTION     0.38     0.47     5.41     0  03:03        0.47
  WS02003066           JUNCTION     0.16     0.27     5.82     0  03:02        0.27
  WS02003067           JUNCTION     0.43     0.65     5.97     0  03:02        0.65
  WS02003069           JUNCTION     0.43     0.54     5.12     0  03:03        0.54
  WS02003072           JUNCTION     0.49     0.60     4.97     0  03:04        0.60
  WS02003073           JUNCTION     0.29     0.37     4.43     0  03:04        0.37
  WS02004138           JUNCTION     0.19     0.20     7.45     0  00:00        0.19
  WS02004139           JUNCTION     0.71     0.73     5.64     0  03:06        0.73
  WS02004401           JUNCTION     0.52     0.75     6.75     0  03:27        0.75
  WS02004402           JUNCTION     0.55     0.78     6.74     0  02:59        0.78
  WS02004403           JUNCTION     0.57     0.80     6.73     0  03:28        0.80
  WS02004404           JUNCTION     0.65     0.88     6.73     0  03:28        0.88
  WS02004405           JUNCTION     0.65     0.88     6.73     0  03:00        0.88
  WS02004406           JUNCTION     0.66     0.88     6.71     0  03:00        0.88
  WS02004407           JUNCTION     0.14     0.26     6.57     0  03:00        0.26
  WS02004409           JUNCTION     0.31     0.58     6.35     0  03:00        0.58
  WS02004410           JUNCTION     0.34     0.59     6.31     0  03:01        0.59
  WS02004411           JUNCTION     0.36     0.61     6.29     0  03:01        0.61
  WS02004412           JUNCTION     0.39     0.62     6.26     0  03:01        0.62
  WS02004413           JUNCTION     0.54     0.79     6.26     0  03:02        0.79
  WS02006109           JUNCTION     0.57     0.84     7.45     0  02:01        0.83
  WS02006110           JUNCTION     0.58     0.82     7.41     0  01:58        0.82
  WS02006111           JUNCTION     0.15     0.25     6.96     0  02:58        0.25
  WS02006112           JUNCTION     0.67     0.93     6.82     0  02:58        0.93
  WS02006113           JUNCTION     0.22     0.39     7.29     0  02:11        0.39
  WS02006115           JUNCTION     0.40     0.65     6.78     0  02:58        0.65
  WS02006116           JUNCTION     0.49     0.73     6.77     0  02:59        0.73
  WS02006228           JUNCTION     0.56     0.85     7.50     0  02:01        0.84
  WS02006229           JUNCTION     0.53     0.83     7.52     0  02:01        0.82
  WS02006230           JUNCTION     0.52     0.86     7.60     0  01:59        0.86
  WS02006231           JUNCTION     0.31     0.60     7.72     0  01:59        0.60
  WS02006232           JUNCTION     0.43     0.75     7.79     0  02:00        0.75
  WS02006234           JUNCTION     0.35     0.71     7.87     0  02:02        0.71
  WS02006235           JUNCTION     0.38     0.76     7.93     0  02:00        0.76
  WS02006238           JUNCTION     0.41     0.81     7.96     0  02:35        0.80
  WS02006239           JUNCTION     0.39     0.81     8.02     0  01:55        0.80
  WS02006240           JUNCTION     0.37     0.79     8.08     0  01:53        0.79
  WS02006242           JUNCTION     0.44     0.91     8.17     0  01:54        0.90
  WS02006243           JUNCTION     0.38     0.84     8.26     0  01:55        0.84
  WS02006245           JUNCTION     0.38     0.86     8.34     0  03:01        0.85
  WS02006247           JUNCTION     0.40     0.89     8.39     0  01:59        0.89
  WS02006248           JUNCTION     0.37     0.86     8.44     0  02:52        0.85
  WS02006249           JUNCTION     0.40     0.92     8.52     0  01:58        0.92
  WS02006251           JUNCTION     0.40     0.91     8.58     0  01:58        0.91
  WS02006252           JUNCTION     0.27     1.50     9.74     0  00:00        0.61
  WS02006256           JUNCTION     0.62     2.35     9.28     0  00:00        2.35
  WSF200               JUNCTION     0.13     0.25     5.48     0  03:02        0.25
  YS02001580           JUNCTION     0.12     1.05     9.59     0  01:55        0.77
  YS02001583           JUNCTION     0.15     1.01     9.51     0  01:55        0.82
  YS02001586           JUNCTION     0.25     1.13     9.30     0  01:55        1.13
  YS02001590           JUNCTION     0.36     1.40     9.26     0  01:55        1.37
  YS02001593           JUNCTION     0.29     1.35     9.21     0  01:55        1.29
  YS02001596           JUNCTION     0.56     1.69     9.11     0  01:55        1.67
  YS02001600           JUNCTION     0.79     1.87     9.00     0  01:55        1.86
  YS02001601           JUNCTION     1.03     2.06     8.90     0  01:55        2.06
  YS02001602           JUNCTION     0.94     1.87     8.77     0  01:55        1.87
  YS02001605           JUNCTION     0.91     1.78     8.68     0  01:57        1.77
  YS02001607           JUNCTION     0.89     1.64     8.49     0  01:59        1.64
  YS02001610           JUNCTION     0.94     1.68     8.48     0  01:55        1.68
  YS02001613           JUNCTION     0.90     1.70     8.54     0  01:58        1.70
  YS02001616           JUNCTION     0.83     1.61     8.52     0  01:57        1.60
  YS02001619           JUNCTION     0.81     1.61     8.54     0  01:57        1.61
  YS02001622           JUNCTION     0.82     1.62     8.52     0  01:58        1.62
  YS02001625           JUNCTION     1.07     1.78     8.38     0  01:55        1.78
  YS02001629           JUNCTION     1.09     1.85     8.40     0  01:59        1.85
  YS02001633           JUNCTION     1.17     2.05     8.50     0  01:59        2.01
  YS02001641           JUNCTION     1.15     1.98     8.41     0  01:59        1.94
  YS02001644           JUNCTION     1.15     1.92     8.35     0  01:59        1.92
  YS02001647           JUNCTION     0.96     1.84     8.45     0  02:00        1.72
  YS02001649           JUNCTION     1.12     2.05     8.44     0  02:00        1.93
  YS02001652           JUNCTION     0.94     1.99     8.59     0  02:00        1.78
  YS02001655           JUNCTION     0.75     1.87     8.72     0  01:59        1.57
  YS02001658           JUNCTION     0.54     1.82     8.96     0  01:59        1.35
  YS02001661           JUNCTION     0.36     1.26     8.66     0  02:00        1.15
  YS02001664           JUNCTION     0.07     0.75     8.67     0  02:00        0.66
  YS02001745           JUNCTION     0.25     1.14     8.66     0  02:00        0.81
  YS02001748           JUNCTION     0.57     1.57     8.64     0  02:00        1.16
  YS02001751           JUNCTION     0.71     1.61     8.49     0  02:00        1.34
  YS02001754           JUNCTION     0.91     1.88     8.49     0  02:00        1.59
  YS02001757           JUNCTION     1.20     2.12     8.38     0  02:00        1.94
  YS02001759           JUNCTION     1.12     2.18     8.54     0  02:00        1.94
  YS02001762           JUNCTION     1.09     2.15     8.55     0  02:00        1.91
  YS02001765           JUNCTION     1.05     2.10     8.55     0  02:00        1.88
  YS02001767           JUNCTION     1.02     2.03     8.52     0  02:00        1.87
  YS02001770           JUNCTION     1.03     1.95     8.44     0  02:00        1.95
  YS02001774           JUNCTION     1.09     2.02     8.44     0  02:00        2.02
  YS02001779           JUNCTION     0.86     1.68     8.37     0  01:58        1.68
  YS02001783           JUNCTION     0.51     2.08     8.22     0  01:58        2.08
  YS02001784           JUNCTION     0.56     1.96     8.02     0  01:58        1.96
  YS02001786           JUNCTION     0.55     1.70     7.73     0  01:58        1.70
  YS02001788           JUNCTION     0.55     1.48     7.46     0  01:58        1.48
  YS02001790           JUNCTION     0.78     1.96     7.60     0  01:54        1.56
  YS02001791           JUNCTION     0.88     1.71     7.18     0  01:54        1.42
  YS02001793           JUNCTION     1.33     1.92     6.75     0  01:54        1.84
  YS02001882           JUNCTION     0.34     1.83     8.55     0  01:58        1.83
  YS02001884           JUNCTION     0.43     1.93     8.55     0  01:58        1.93
  YS02001887           JUNCTION     0.51     2.00     8.54     0  01:58        2.00
  YS02001890           JUNCTION     0.54     1.81     8.32     0  01:57        1.81
  YS02001895           JUNCTION     0.32     1.70     8.45     0  01:58        1.70
  YS02001898           JUNCTION     0.32     1.77     8.51     0  01:58        1.77
  YS02001901           JUNCTION     0.43     1.87     8.48     0  01:58        1.87
  YS02001904           JUNCTION     0.41     1.85     8.48     0  01:58        1.85
  YS02001907           JUNCTION     0.72     1.96     8.25     0  01:58        1.96
  YS02001910           JUNCTION     0.53     2.10     8.61     0  01:58        2.10
  YS02001915           JUNCTION     0.35     2.00     8.72     0  01:58        2.00
  YS02001918           JUNCTION     0.19     1.81     8.88     0  01:58        1.47
  YS02001920           JUNCTION     0.27     2.11     9.11     0  01:58        1.58
  YS02001923           JUNCTION     0.14     2.03     9.29     0  01:58        1.37
  YS02001926           JUNCTION     0.17     1.90     9.35     0  01:58        1.22
  YS02001929           JUNCTION     0.10     1.78     9.47     0  01:58        1.00
  YS02006553           JUNCTION     0.72     2.19     8.47     0  01:58        2.19
  YS02006556           JUNCTION     0.70     2.39     8.70     0  01:58        2.39
  YS02006558           JUNCTION     0.74     2.50     8.77     0  01:58        2.50
  YS02006561           JUNCTION     0.20     1.72     8.38     0  01:58        1.72
  YS02163301           JUNCTION     1.11     1.93     8.45     0  01:59        1.92
  YS02163601           JUNCTION     1.20     2.07     8.47     0  01:59        2.02
  YS02164001           JUNCTION     1.14     1.99     8.45     0  01:59        1.94
  CC-1                 OUTFALL      0.00     0.00     0.00     0  00:00        0.00
  CC-2                 OUTFALL      0.00     0.00     0.00     0  00:00        0.00
  JK-1                 OUTFALL      0.00     0.00     0.00     0  00:00        0.00
  JK-2                 OUTFALL      0.00     0.00     0.00     0  00:00        0.00
  WSC                  OUTFALL      0.29     0.37     1.04     0  03:05        0.37
  CC-storage           STORAGE      1.75     2.30     7.80     0  02:34        2.30
  JK-storage           STORAGE      4.48     5.80     6.60     0  01:55        5.80
  XR-storage           STORAGE      0.30     5.00     3.00     0  00:00        4.91
  
  
  *******************
  Node Inflow Summary
  *******************
  
  -------------------------------------------------------------------------------------------------
                                  Maximum  Maximum                  Lateral       Total        Flow
                                  Lateral    Total  Time of Max      Inflow      Inflow     Balance
                                   Inflow   Inflow   Occurrence      Volume      Volume       Error
  Node                 Type           LPS      LPS  days hr:min    10^6 ltr    10^6 ltr     Percent
  -------------------------------------------------------------------------------------------------
  WS02001211           JUNCTION      7.35   389.14     0  03:39       0.212        11.1       0.348
  WS02001212           JUNCTION      0.00   390.86     0  02:26           0        11.1       0.207
  WS02001213           JUNCTION      0.00   392.63     0  02:24           0        11.1       0.238
  WS02003059           JUNCTION      0.00   395.68     0  03:40           0          11       0.328
  WS02003060           JUNCTION     16.53   816.11     0  03:02       0.476        14.6       0.148
  WS02003066           JUNCTION      0.00   411.94     0  03:02           0        3.08       0.039
  WS02003067           JUNCTION      0.00   411.93     0  03:02           0        3.09       0.130
  WS02003069           JUNCTION      0.32   816.39     0  03:03     0.00922        14.5       0.156
  WS02003072           JUNCTION      0.00   816.37     0  03:03           0        14.5       0.204
  WS02003073           JUNCTION      1.82   818.18     0  03:04      0.0524        14.5       0.219
  WS02004138           JUNCTION      0.00   380.00     0  00:00           0        10.9       0.059
  WS02004139           JUNCTION      0.32   395.52     0  00:00     0.00924        10.9       0.407
  WS02004401           JUNCTION      0.00   412.32     0  03:27           0        3.18       0.311
  WS02004402           JUNCTION      0.00   412.22     0  02:59           0        3.17       0.317
  WS02004403           JUNCTION      0.00   412.19     0  03:28           0        3.16       0.312
  WS02004404           JUNCTION      0.16   412.33     0  02:59     0.00467        3.16       0.260
  WS02004405           JUNCTION      0.04   412.35     0  02:59      0.0011        3.15       0.388
  WS02004406           JUNCTION      0.00   412.36     0  03:28           0        3.14       0.650
  WS02004407           JUNCTION      0.00   412.18     0  03:00           0        3.12       0.029
  WS02004409           JUNCTION      0.00   412.12     0  03:00           0        3.12       0.069
  WS02004410           JUNCTION      0.00   412.08     0  03:00           0        3.12       0.125
  WS02004411           JUNCTION      0.00   412.04     0  03:01           0        3.11       0.164
  WS02004412           JUNCTION      0.00   412.01     0  03:01           0        3.11       0.225
  WS02004413           JUNCTION      0.00   412.02     0  03:01           0         3.1       0.404
  WS02006109           JUNCTION      1.23   412.08     0  02:01      0.0354        3.23       0.219
  WS02006110           JUNCTION      0.00   411.76     0  02:01           0        3.22       0.192
  WS02006111           JUNCTION      0.00   423.65     0  01:51           0        3.21       0.027
  WS02006112           JUNCTION      0.00   413.95     0  02:58           0        3.21       0.543
  WS02006113           JUNCTION      0.00   412.00     0  02:58           0        3.21       0.042
  WS02006115           JUNCTION      0.00   412.53     0  02:58           0        3.19       0.194
  WS02006116           JUNCTION      0.00   412.33     0  02:59           0        3.19       0.141
  WS02006228           JUNCTION      0.00   411.58     0  02:01           0        3.19       0.074
  WS02006229           JUNCTION      0.00   410.58     0  02:01           0         3.2       0.142
  WS02006230           JUNCTION     10.28   410.59     0  01:59       0.296         3.2       0.171
  WS02006231           JUNCTION      0.00   400.40     0  01:59           0        2.91      -0.083
  WS02006232           JUNCTION      0.00   400.39     0  01:59           0        2.91       0.285
  WS02006234           JUNCTION      0.00   401.35     0  01:58           0        2.91      -0.185
  WS02006235           JUNCTION      0.00   401.94     0  02:00           0        2.92       0.242
  WS02006238           JUNCTION      0.00   402.05     0  02:35           0         2.9      -0.296
  WS02006239           JUNCTION      0.00   401.31     0  01:54           0        2.89      -0.248
  WS02006240           JUNCTION      0.00   400.94     0  01:58           0        2.88      -0.052
  WS02006242           JUNCTION      0.00   400.77     0  02:00           0        2.88       0.008
  WS02006243           JUNCTION      0.00   401.49     0  02:36           0        2.88      -0.051
  WS02006245           JUNCTION      0.00   403.65     0  02:01           0        2.89       0.376
  WS02006247           JUNCTION      0.00   400.89     0  02:00           0        2.89      -0.001
  WS02006248           JUNCTION      0.00   404.06     0  02:17           0        2.89       0.043
  WS02006249           JUNCTION      0.00   473.37     0  02:16           0         2.9       0.296
  WS02006251           JUNCTION      0.08   401.16     0  02:35     0.00222         2.9       0.002
  WS02006252           JUNCTION      0.00   400.00     0  00:00           0        2.89      -0.057
  WS02006256           JUNCTION      0.00   300.00     0  00:00           0      0.0242      -5.745
  WSF200               JUNCTION      0.00   411.93     0  03:02           0        3.08       0.017
  YS02001580           JUNCTION      0.00   112.64     0  01:55           0     0.00421      -2.162
  YS02001583           JUNCTION      0.00   187.17     0  01:55           0      0.0148      -7.045
  YS02001586           JUNCTION    665.92   665.92     0  02:04        1.41        1.42       0.096
  YS02001590           JUNCTION      0.00   318.01     0  02:10           0        1.15       0.031
  YS02001593           JUNCTION      0.00   318.03     0  01:59           0        1.15       0.033
  YS02001596           JUNCTION      0.00   318.00     0  01:59           0        1.15       0.306
  YS02001600           JUNCTION      0.00   318.12     0  01:59           0        1.15       0.700
  YS02001601           JUNCTION   1163.68  1481.22     0  02:02        1.87        3.01       0.304
  YS02001602           JUNCTION      0.00   523.22     0  01:54           0        1.96       0.473
  YS02001605           JUNCTION      0.00   523.66     0  01:54           0        1.83       0.764
  YS02001607           JUNCTION      0.00   524.42     0  01:54           0        1.81       1.193
  YS02001610           JUNCTION      0.00   606.04     0  02:04           0        1.91       1.219
  YS02001613           JUNCTION      0.00   529.13     0  01:54           0        1.53       1.587
  YS02001616           JUNCTION      0.00   532.80     0  01:54           0        1.52       1.442
  YS02001619           JUNCTION   1160.19  1160.19     0  02:03        2.18        3.56       0.602
  YS02001622           JUNCTION      0.00   938.75     0  01:57           0        3.42       0.854
  YS02001625           JUNCTION      0.00  1211.87     0  02:04           0         3.5       1.298
  YS02001629           JUNCTION      0.00   937.77     0  01:57           0         2.7       0.845
  YS02001633           JUNCTION    899.38  1405.55     0  01:57        1.42        3.92       0.822
  YS02001641           JUNCTION      0.00  1401.87     0  01:57           0        3.72       0.568
  YS02001644           JUNCTION    772.74  1823.20     0  01:57        1.16        4.86       0.537
  YS02001647           JUNCTION      0.00  1823.87     0  01:57           0        4.64       0.612
  YS02001649           JUNCTION      0.00  2086.76     0  01:57           0        5.68       0.646
  YS02001652           JUNCTION      0.00   913.40     0  02:01           0         1.1       2.094
  YS02001655           JUNCTION      0.15   914.23     0  02:01     0.00443        1.12       2.151
  YS02001658           JUNCTION      0.00   913.89     0  02:01           0        1.13       1.265
  YS02001661           JUNCTION      0.00   905.58     0  02:01           0        1.12       0.630
  YS02001664           JUNCTION    782.44   782.44     0  02:02        1.11        1.11      -0.041
  YS02001745           JUNCTION    473.97   487.59     0  01:59       0.636       0.648       0.715
  YS02001748           JUNCTION      0.04   571.94     0  02:00      0.0013       0.656       1.977
  YS02001751           JUNCTION      0.01   574.23     0  02:00    0.000317       0.649       3.570
  YS02001754           JUNCTION      0.26   575.46     0  02:00     0.00749       0.641       3.768
  YS02001757           JUNCTION      0.00  3457.39     0  02:00           0        8.31       1.158
  YS02001759           JUNCTION    690.32  1407.65     0  02:00        0.93         2.1       1.079
  YS02001762           JUNCTION      0.00   800.27     0  01:59           0        1.19       1.791
  YS02001765           JUNCTION      0.00   798.46     0  01:59           0        1.21       2.039
  YS02001767           JUNCTION      0.54   796.50     0  01:59      0.0154        1.25       2.897
  YS02001770           JUNCTION    948.72   948.72     0  02:02        1.37        1.38       2.339
  YS02001774           JUNCTION      0.00   341.12     0  01:58           0       0.129      23.667
  YS02001779           JUNCTION      0.01   325.17     0  01:58    0.000144      0.0929      17.949
  YS02001783           JUNCTION      0.00   980.25     0  02:00           0        3.17       0.206
  YS02001784           JUNCTION      1.06   981.72     0  02:00      0.0305        3.19       0.333
  YS02001786           JUNCTION      0.06   981.03     0  02:00     0.00162        3.18       0.420
  YS02001788           JUNCTION      0.07   980.86     0  02:00     0.00204        3.17       0.425
  YS02001790           JUNCTION      0.15   981.20     0  02:00     0.00446        3.16       0.537
  YS02001791           JUNCTION      0.00   981.52     0  02:00           0        3.14       0.422
  YS02001793           JUNCTION      0.00   985.43     0  01:58           0        3.13       0.506
  YS02001882           JUNCTION      0.00    98.27     0  01:56           0      0.0124       4.053
  YS02001884           JUNCTION      0.00   132.89     0  01:56           0      0.0485       4.932
  YS02001887           JUNCTION    741.98   742.67     0  02:01       0.961       0.995       0.439
  YS02001890           JUNCTION      0.00   741.37     0  02:01           0       0.954       0.528
  YS02001895           JUNCTION      0.00   516.17     0  02:05           0       0.892       0.164
  YS02001898           JUNCTION      0.00   516.18     0  02:05           0        0.89      -0.003
  YS02001901           JUNCTION      0.00   516.17     0  02:05           0       0.893       0.345
  YS02001904           JUNCTION      0.00   516.17     0  02:05           0       0.897       0.308
  YS02001907           JUNCTION      0.00  1738.08     0  02:02           0        2.82       0.652
  YS02001910           JUNCTION      0.00  1224.21     0  02:02           0        1.93       0.369
  YS02001915           JUNCTION    781.36  1223.69     0  02:02        1.18        1.98       0.068
  YS02001918           JUNCTION      0.00   589.92     0  01:57           0        0.83      -0.022
  YS02001920           JUNCTION      2.87   493.85     0  01:58      0.0827       0.808       0.016
  YS02001923           JUNCTION      0.04   621.41     0  01:57     0.00109        0.71      -0.146
  YS02001926           JUNCTION      0.05   888.79     0  01:58      0.0015       0.686      -0.232
  YS02001929           JUNCTION    400.10   734.67     0  01:58       0.664        0.67       0.026
  YS02006553           JUNCTION      0.00   675.69     0  02:16           0        1.88       0.634
  YS02006556           JUNCTION      0.00   676.23     0  02:16           0        1.89       0.424
  YS02006558           JUNCTION    944.48   981.01     0  02:00        1.33         3.2       0.107
  YS02006561           JUNCTION      0.00   980.34     0  02:00           0        3.17      -0.019
  YS02163301           JUNCTION      0.00   934.87     0  01:57           0        2.67       0.912
  YS02163601           JUNCTION      0.11  1403.47     0  01:57     0.00317        3.76       0.802
  YS02164001           JUNCTION      0.00  1400.38     0  01:57           0        3.73       0.536
  CC-1                 OUTFALL       0.00   683.00     0  00:00           0       0.208       0.000
  CC-2                 OUTFALL       0.00   683.00     0  00:00           0       0.208       0.000
  JK-1                 OUTFALL       0.00  1000.00     0  00:00           0      0.0791       0.000
  JK-2                 OUTFALL       0.00  1000.00     0  00:00           0      0.0791       0.000
  WSC                  OUTFALL       0.00   818.16     0  03:05           0        14.5       0.000
  CC-storage           STORAGE       0.00  3460.86     0  02:00           0        10.4       0.400
  JK-storage           STORAGE       0.00   989.22     0  01:58           0        3.27       0.485
  XR-storage           STORAGE     200.00   200.00     0  00:00        5.76        6.36     -41.886
  
  
  **********************
  Node Surcharge Summary
  **********************
  
  Surcharging occurs when water rises above the top of the highest conduit.
  ---------------------------------------------------------------------
                                               Max. Height   Min. Depth
                                   Hours       Above Crown    Below Rim
  Node                 Type      Surcharged         Meters       Meters
  ---------------------------------------------------------------------
  WS02006109           JUNCTION        1.49          0.015        1.805
  WS02006228           JUNCTION        1.47          0.016        2.184
  WS02006229           JUNCTION        1.51          0.026        2.424
  WS02006232           JUNCTION        1.62          0.051        1.429
  WS02006235           JUNCTION        1.51          0.055        1.235
  WS02006238           JUNCTION        1.56          0.094        1.336
  WS02006239           JUNCTION        1.52          0.067        1.223
  WS02006240           JUNCTION        1.52          0.080        1.310
  WS02006242           JUNCTION        1.67          0.175        0.645
  WS02006243           JUNCTION        1.55          0.132        0.638
  WS02006245           JUNCTION        1.55          0.146        0.704
  WS02006247           JUNCTION        1.58          0.180        0.580
  WS02006248           JUNCTION        1.54          0.136        0.244
  WS02006249           JUNCTION        1.57          0.222        0.168
  WS02006252           JUNCTION        2.01          1.100        0.000
  WS02006256           JUNCTION        3.01          2.050        0.000
  YS02001580           JUNCTION        0.50          0.450        0.000
  YS02001583           JUNCTION        0.51          0.372        0.128
  YS02001586           JUNCTION        0.71          0.510        0.000
  YS02001590           JUNCTION        0.80          0.750        0.000
  YS02001593           JUNCTION        0.81          0.728        0.112
  YS02001596           JUNCTION        0.99          0.962        0.108
  YS02001600           JUNCTION        1.42          1.190        0.000
  YS02001601           JUNCTION        6.31          1.440        0.000
  YS02001602           JUNCTION        6.26          1.270        0.000
  YS02001605           JUNCTION        6.24          1.180        0.000
  YS02001607           JUNCTION        1.15          0.645        0.035
  YS02001610           JUNCTION        1.30          0.680        0.000
  YS02001613           JUNCTION        1.16          0.700        0.000
  YS02001616           JUNCTION        1.05          0.610        0.000
  YS02001619           JUNCTION        1.01          0.610        0.000
  YS02001622           JUNCTION        1.06          0.620        0.000
  YS02001625           JUNCTION        6.11          0.780        0.000
  YS02001629           JUNCTION        0.97          0.470        0.000
  YS02001633           JUNCTION        6.12          1.028        0.032
  YS02001641           JUNCTION        6.10          0.975        0.125
  YS02001644           JUNCTION        6.09          0.920        0.000
  YS02001647           JUNCTION        6.04          0.845        0.055
  YS02001649           JUNCTION        6.05          1.050        0.000
  YS02001652           JUNCTION        6.03          0.960        0.170
  YS02001655           JUNCTION        0.96          0.868        0.332
  YS02001658           JUNCTION        0.16          0.819        0.481
  YS02001661           JUNCTION        0.02          0.191        1.199
  YS02001745           JUNCTION        0.01          0.138        1.212
  YS02001748           JUNCTION        0.08          0.487        0.703
  YS02001751           JUNCTION        0.79          0.607        0.593
  YS02001754           JUNCTION        6.02          0.833        0.317
  YS02001757           JUNCTION        6.04          1.121        0.089
  YS02001759           JUNCTION        6.03          1.176        0.034
  YS02001762           JUNCTION        6.03          1.150        0.000
  YS02001765           JUNCTION        6.03          1.100        0.000
  YS02001767           JUNCTION        6.03          1.030        0.000
  YS02001770           JUNCTION        6.03          0.920        0.000
  YS02001774           JUNCTION        6.03          1.016        0.034
  YS02001779           JUNCTION        6.02          0.680        0.000
  YS02001783           JUNCTION        0.59          1.282        0.318
  YS02001784           JUNCTION        0.60          1.155        0.335
  YS02001786           JUNCTION        0.59          0.896        0.534
  YS02001788           JUNCTION        0.59          0.682        0.798
  YS02001790           JUNCTION        6.09          1.157        0.000
  YS02001791           JUNCTION        6.09          0.906        1.014
  YS02001793           JUNCTION        6.11          0.920        1.680
  YS02001882           JUNCTION        0.44          0.830        0.000
  YS02001884           JUNCTION        0.45          0.870        0.000
  YS02001887           JUNCTION        0.47          0.950        0.000
  YS02001890           JUNCTION        0.49          0.760        0.000
  YS02001895           JUNCTION        0.43          0.702        0.048
  YS02001898           JUNCTION        0.42          0.740        0.000
  YS02001901           JUNCTION        0.46          0.870        0.000
  YS02001904           JUNCTION        0.46          0.850        0.000
  YS02001907           JUNCTION        0.65          0.950        0.000
  YS02001910           JUNCTION        0.51          1.100        0.000
  YS02001915           JUNCTION        0.43          1.000        0.000
  YS02001918           JUNCTION        0.35          0.810        0.000
  YS02001920           JUNCTION        0.36          1.106        0.034
  YS02001923           JUNCTION        0.03          0.820        0.000
  YS02001926           JUNCTION        0.04          0.900        0.000
  YS02001929           JUNCTION        0.01          0.780        0.000
  YS02006553           JUNCTION        0.67          1.190        0.000
  YS02006556           JUNCTION        0.58          1.350        0.000
  YS02006558           JUNCTION        0.57          1.400        0.000
  YS02006561           JUNCTION        0.39          0.919        0.231
  YS02163301           JUNCTION        6.12          0.930        0.100
  YS02163601           JUNCTION        6.13          1.069        0.011
  YS02164001           JUNCTION        6.10          0.989        0.111
  
  
  *********************
  Node Flooding Summary
  *********************
  
  Flooding refers to all water that overflows a node, whether it ponds or not.
  --------------------------------------------------------------------------
                                                             Total   Maximum
                                 Maximum   Time of Max       Flood    Ponded
                        Hours       Rate    Occurrence      Volume     Depth
  Node                 Flooded       LPS   days hr:min    10^6 ltr    Meters
  --------------------------------------------------------------------------
  WS02006252              0.01    245.63      0  00:00       0.000     0.000
  WS02006256              0.02    293.19      0  00:00       0.005     0.000
  YS02001580              0.01     93.29      0  01:55       0.000     0.000
  YS02001586              0.41    348.42      0  02:04       0.256     0.000
  YS02001590              0.01      9.35      0  01:55       0.000     0.000
  YS02001600              0.01      3.41      0  01:55       0.000     0.000
  YS02001601              0.60   1083.30      0  02:02       1.043     0.000
  YS02001602              0.62     62.00      0  02:11       0.122     0.000
  YS02001605              0.01      0.43      0  02:00       0.000     0.000
  YS02001610              0.46    606.00      0  02:04       0.481     0.000
  YS02001613              0.01      0.96      0  01:58       0.000     0.000
  YS02001616              0.01      1.98      0  01:57       0.000     0.000
  YS02001619              0.01      3.40      0  01:57       0.000     0.000
  YS02001622              0.01      1.05      0  01:58       0.000     0.000
  YS02001625              0.51   1211.70      0  02:04       0.895     0.000
  YS02001629              0.08    248.27      0  02:01       0.043     0.000
  YS02001644              0.13    738.06      0  02:01       0.193     0.000
  YS02001649              0.01     21.76      0  02:00       0.000     0.000
  YS02001762              0.01     12.67      0  02:00       0.000     0.000
  YS02001765              0.01     10.84      0  02:00       0.000     0.000
  YS02001767              0.01      4.43      0  02:00       0.000     0.000
  YS02001770              0.01     17.40      0  02:00       0.000     0.000
  YS02001779              0.11    298.00      0  02:02       0.073     0.000
  YS02001790              0.01    260.99      0  01:54       0.000     0.000
  YS02001882              0.01      3.02      0  01:58       0.000     0.000
  YS02001884              0.01      3.18      0  01:58       0.000     0.000
  YS02001887              0.01      2.71      0  01:58       0.000     0.000
  YS02001890              0.12    234.01      0  02:01       0.057     0.000
  YS02001898              0.01      5.08      0  01:58       0.000     0.000
  YS02001901              0.01      4.41      0  01:58       0.000     0.000
  YS02001904              0.01      5.94      0  01:58       0.000     0.000
  YS02001907              0.29   1698.09      0  02:02       0.927     0.000
  YS02001910              0.01      3.60      0  01:58       0.000     0.000
  YS02001915              0.01      3.21      0  01:58       0.000     0.000
  YS02001918              0.01    258.93      0  01:58       0.003     0.000
  YS02001923              0.01    480.42      0  01:58       0.003     0.000
  YS02001926              0.01     49.89      0  01:58       0.000     0.000
  YS02001929              0.01    101.55      0  01:58       0.000     0.000
  YS02006553              0.01      3.76      0  01:58       0.000     0.000
  YS02006556              0.01      9.44      0  01:58       0.000     0.000
  YS02006558              0.01      5.24      0  01:58       0.000     0.000
  CC-storage              0.49    778.18      0  02:34       0.626     0.000
  JK-storage              6.08    985.75      0  01:58       2.776     0.000
  
  
  **********************
  Storage Volume Summary
  **********************
  
  ------------------------------------------------------------------------------------------------
                         Average    Avg   Evap  Exfil     Maximum    Max    Time of Max    Maximum
                          Volume   Pcnt   Pcnt   Pcnt      Volume   Pcnt     Occurrence    Outflow
  Storage Unit           1000 m³   Full   Loss   Loss     1000 m³   Full    days hr:min        LPS
  ------------------------------------------------------------------------------------------------
  CC-storage               4.881   76.1    0.0    0.0       6.410  100.0       0  02:34    1783.53
  JK-storage               0.225   77.3    0.0    0.0       0.291  100.0       0  01:55    2300.00
  XR-storage               0.036    2.5    0.0    0.0       0.600   41.7       0  00:00     380.00
  
  
  ***********************
  Outfall Loading Summary
  ***********************
  
  -----------------------------------------------------------
                         Flow       Avg       Max       Total
                         Freq      Flow      Flow      Volume
  Outfall Node           Pcnt       LPS       LPS    10^6 ltr
  -----------------------------------------------------------
  CC-1                   1.32    683.00    683.00       0.208
  CC-2                   1.32    683.00    683.00       0.208
  JK-1                   1.23    347.46   1000.00       0.079
  JK-2                   1.23    347.46   1000.00       0.079
  WSC                   99.92    564.91    818.16      14.504
  -----------------------------------------------------------
  System                21.01   2625.83   3366.35      15.079
  
  
  ********************
  Link Flow Summary
  ********************
  
  -----------------------------------------------------------------------------
                                 Maximum  Time of Max   Maximum    Max/    Max/
                                  |Flow|   Occurrence   |Veloc|    Full    Full
  Link                 Type          LPS  days hr:min     m/sec    Flow   Depth
  -----------------------------------------------------------------------------
  1                    CONDUIT    818.16     0  03:05      3.15    0.28    0.37
  WS02001211WS02001212 CONDUIT    390.86     0  02:26      0.78    0.30    0.64
  WS02001212WS02001213 CONDUIT    392.63     0  02:24      1.32    0.61    0.45
  WS02001213WS02003059 CONDUIT    395.68     0  03:40      0.85    0.65    0.75
  WS02003059WS02003060 CONDUIT    399.96     0  02:24      0.95    0.26    0.63
  WS02003060WS02003069 CONDUIT    816.07     0  03:03      1.80    0.32    0.42
  WS02003066WSF200     CONDUIT    411.93     0  03:02      2.69    0.07    0.19
  WS02003067WS02003066 CONDUIT    411.94     0  03:02      1.04    0.13    0.38
  WS02003069WS02003072 CONDUIT    816.37     0  03:03      1.55    0.39    0.47
  WS02003072WS02003073 CONDUIT    816.35     0  03:04      1.64    1.76    0.45
  WS02004138WS02004139 CONDUIT    395.20     0  00:00      3.65    0.08    0.43
  WS02004139WS02001211 CONDUIT    381.80     0  03:39      0.91    0.48    0.59
  WS02004401WS02004402 CONDUIT    412.22     0  02:59      0.99    0.49    0.77
  WS02004402WS02004403 CONDUIT    412.19     0  03:28      0.99    0.59    0.79
  WS02004403WS02004404 CONDUIT    412.16     0  02:59      0.93    0.30    0.84
  WS02004404WS02004405 CONDUIT    412.31     0  02:59      1.10    4.04    0.88
  WS02004405WS02004406 CONDUIT    412.36     0  03:28      1.03    0.81    0.88
  WS02004406WS02004407 CONDUIT    412.18     0  03:00      0.89    0.18    0.57
  WS02004407WS02004409 CONDUIT    412.12     0  03:00      1.42    0.15    0.42
  WS02004409WS02004410 CONDUIT    412.08     0  03:00      0.92    0.53    0.58
  WS02004410WS02004411 CONDUIT    412.04     0  03:01      0.86    0.56    0.60
  WS02004411WS02004412 CONDUIT    412.01     0  03:01      0.81    0.59    0.61
  WS02004412WS02004413 CONDUIT    412.02     0  03:01      0.70    0.28    0.70
  WS02004413WS02003067 CONDUIT    411.93     0  03:02      0.96    0.18    0.54
  WS02006109WS02006110 CONDUIT    411.76     0  02:01      0.84    0.79    0.94
  WS02006110WS02006113 CONDUIT    412.00     0  02:58      1.03    0.37    0.75
  WS02006111WS02006112 CONDUIT    413.95     0  02:58      1.83    0.20    0.65
  WS02006112WS02006115 CONDUIT    412.53     0  02:58      0.71    0.24    0.78
  WS02006113WS02006111 CONDUIT    423.65     0  01:51      2.25    0.51    0.40
  WS02006115WS02006116 CONDUIT    412.33     0  02:59      0.98    0.53    0.66
  WS02006116WS02004401 CONDUIT    412.32     0  03:27      1.00    0.57    0.74
  WS02006228WS02006109 CONDUIT    410.85     0  02:01      1.06    1.80    1.00
  WS02006229WS02006228 CONDUIT    411.58     0  02:01      1.13    1.36    1.00
  WS02006230WS02006229 CONDUIT    410.58     0  02:01      1.22    9.14    1.00
  WS02006231WS02006230 CONDUIT    400.31     0  01:59      1.37    6.07    0.77
  WS02006232WS02006231 CONDUIT    400.40     0  01:59      1.08    0.84    0.92
  WS02006234WS02006232 CONDUIT    400.39     0  01:59      1.40    0.81    1.00
  WS02006235WS02006234 CONDUIT    401.35     0  01:58      1.29    4.23    0.99
  WS02006238WS02006235 CONDUIT    401.89     0  02:00      1.45    0.90    1.00
  WS02006239WS02006238 CONDUIT    402.05     0  02:35      1.20    1.29    1.00
  WS02006240WS02006239 CONDUIT    401.31     0  01:54      1.30    1.26    1.00
  WS02006242WS02006240 CONDUIT    400.94     0  01:58      1.16    1.59    1.00
  WS02006243WS02006242 CONDUIT    400.77     0  02:00      1.43    0.86    1.00
  WS02006245WS02006243 CONDUIT    401.49     0  02:36      1.45    1.19    1.00
  WS02006247WS02006245 CONDUIT    403.65     0  02:01      1.43    3.20    1.00
  WS02006248WS02006247 CONDUIT    400.89     0  02:00      1.43    0.87    1.00
  WS02006249WS02006248 CONDUIT    404.06     0  02:17      1.38    2.21    1.00
  WS02006251WS02006249 CONDUIT    473.37     0  02:16      1.99    1.36    1.00
  WS02006252WS02006251 CONDUIT    401.08     0  02:35     24.55    1.47    1.00
  WS02006256WS02006235 CONDUIT    288.91     0  00:00      4.23    3.06    1.00
  WSF200WS02003060     CONDUIT    411.94     0  03:02      1.43    0.09    0.30
  YS02001580YS02001583 CONDUIT    112.64     0  01:55      0.73    0.44    1.00
  YS02001583YS02001586 CONDUIT    171.59     0  01:55      0.74    0.26    1.00
  YS02001586YS02001590 CONDUIT    318.01     0  02:10      1.27    0.56    1.00
  YS02001590YS02001593 CONDUIT    318.03     0  01:59      1.12    2.00    1.00
  YS02001593YS02001596 CONDUIT    318.00     0  01:59      1.62    0.50    1.00
  YS02001596YS02001600 CONDUIT    318.12     0  01:59      1.13    0.62    1.00
  YS02001600YS02001601 CONDUIT    318.13     0  02:16      1.13    0.55    1.00
  YS02001601YS02001602 CONDUIT    523.22     0  01:54      1.85    1.89    1.00
  YS02001602YS02001605 CONDUIT    523.66     0  01:54      1.85   11.08    1.00
  YS02001605YS02001607 CONDUIT    524.42     0  01:54      1.85    2.88    1.00
  YS02001607YS02001610 CONDUIT    526.31     0  01:54      0.67    0.50    1.00
  YS02001610YS02001613 CONDUIT    529.13     0  01:54      0.67    0.61    1.00
  YS02001613YS02001616 CONDUIT    532.80     0  01:54      0.68    0.46    1.00
  YS02001616YS02001619 CONDUIT    504.04     0  01:54      0.66    0.88    1.00
  YS02001619YS02001622 CONDUIT    938.75     0  01:57      1.20    1.38    1.00
  YS02001622YS02001625 CONDUIT    938.43     0  01:57      1.19    0.50    1.00
  YS02001625YS02001629 CONDUIT    937.77     0  01:57      1.19    0.45    1.00
  YS02001629YS02163301 CONDUIT    934.87     0  01:57      1.19    1.15    1.00
  YS02001633YS02163601 CONDUIT   1403.36     0  01:57      1.79    1.47    1.00
  YS02001641YS02001644 CONDUIT   1399.98     0  01:57      1.78    4.53    1.00
  YS02001644YS02001647 CONDUIT   1823.87     0  01:57      2.33    1.07    1.00
  YS02001647YS02001649 CONDUIT   1840.60     0  01:57      2.38    0.97    1.00
  YS02001649YS02001757 CONDUIT   2072.70     0  01:58      2.64    1.26    1.00
  YS02001652YS02001649 CONDUIT    914.14     0  02:01      1.16    0.45    1.00
  YS02001655YS02001652 CONDUIT    913.40     0  02:01      1.34    0.44    1.00
  YS02001658YS02001655 CONDUIT    914.07     0  02:01      1.94    0.39    1.00
  YS02001661YS02001658 CONDUIT    913.89     0  02:01      2.38    0.36    1.00
  YS02001664YS02001661 CONDUIT    905.58     0  02:01      2.41    0.28    0.87
  YS02001745YS02001748 CONDUIT    571.90     0  02:00      2.23    0.22    1.00
  YS02001748YS02001751 CONDUIT    574.22     0  02:00      1.70    0.29    1.00
  YS02001751YS02001754 CONDUIT    575.20     0  02:00      1.42    0.28    1.00
  YS02001754YS02001757 CONDUIT    578.91     0  02:00      0.74    0.23    1.00
  YS02001757CaochengTiaoxuchi CONDUIT   3460.86     0  02:00      4.41    1.50    1.00
  YS02001759YS02001757 CONDUIT   1398.34     0  02:00      1.78    0.99    1.00
  YS02001762YS02001759 CONDUIT    801.60     0  01:59      1.02    0.92    1.00
  YS02001765YS02001762 CONDUIT    800.27     0  01:59      1.02    0.75    1.00
  YS02001767YS02001765 CONDUIT    798.46     0  01:59      1.02    1.00    1.00
  YS02001770YS02001767 CONDUIT    795.96     0  01:59      1.01    3.15    1.00
  YS02001774YS02001770 CONDUIT    341.12     0  01:58      0.43    0.22    1.00
  YS02001779YS02001774 CONDUIT    325.16     0  01:58      0.42    0.16    1.00
  YS02001783YS02001784 CONDUIT    980.66     0  02:00      1.95    1.35    1.00
  YS02001784YS02001785 CONDUIT    980.97     0  02:00      1.95    2.28    1.00
  YS02001786YS02001788 CONDUIT    980.79     0  02:00      2.20    1.89    1.00
  YS02001788YS02001790 CONDUIT    981.04     0  02:00      2.27    0.72    1.00
  YS02001790YS02001791 CONDUIT    981.52     0  02:00      2.62    1.07    1.00
  YS02001791YS02001793 CONDUIT    985.43     0  01:58      4.98    0.42    1.00
  YS02001793JiankangQianchi CONDUIT    989.22     0  01:58      1.54    0.08    1.00
  YS02001882YS02001884 CONDUIT     98.27     0  01:56      0.13    0.11    1.00
  YS02001884YS02001887 CONDUIT    132.89     0  01:56      0.17    0.18    1.00
  YS02001887YS02001890 CONDUIT    741.37     0  02:01      0.94    1.27    1.00
  YS02001890YS02001895 CONDUIT    516.17     0  02:05      0.66    0.24    1.00
  YS02001895YS02001898 CONDUIT    516.18     0  02:05      0.66    0.90    1.00
  YS02001898YS02001901 CONDUIT    516.17     0  02:05      0.66    0.33    1.00
  YS02001901YS02001904 CONDUIT    516.17     0  02:05      0.66    0.80    1.00
  YS02001904YS02001907 CONDUIT    516.17     0  02:05      0.66    0.18    1.00
  YS02001907YS02006553 CONDUIT    675.69     0  02:16      0.75    0.79    1.00
  YS02001910YS02001907 CONDUIT   1224.14     0  02:02      1.56    0.69    1.00
  YS02001915YS02001910 CONDUIT   1224.21     0  02:02      1.56    0.61    1.00
  YS02001918YS02001915 CONDUIT    589.92     0  01:57      0.78    0.33    1.00
  YS02001920YS02001918 CONDUIT    490.98     0  01:58      0.64    0.47    1.00
  YS02001923YS02001920 CONDUIT    505.98     0  01:58      0.72    0.23    1.00
  YS02001926YS02001923 CONDUIT    671.07     0  01:58      1.13    0.96    1.00
  YS02001929YS02001926 CONDUIT    487.53     0  01:58      1.15    0.23    1.00
  YS02006553YS02006556 CONDUIT    676.23     0  02:16      0.86    0.58    1.00
  YS02006556YS02006558 CONDUIT    678.77     0  02:16      0.86    0.54    1.00
  YS02006558YS02006561 CONDUIT    980.34     0  02:00      3.47    2.17    1.00
  YS02006561YS02001783 CONDUIT    980.25     0  02:00      2.13    0.51    1.00
  YS02163301YS02001633 CONDUIT    933.93     0  01:57      1.19    0.88    1.00
  YS02163601YS02164001 CONDUIT   1400.38     0  01:57      1.78    1.24    1.00
  YS02164001YS02001641 CONDUIT   1401.87     0  01:57      1.78    1.91    1.00
  CC-R1                PUMP       683.00     0  00:00              1.00
  CC-R2                PUMP       683.00     0  00:00              1.00
  CC-S1                PUMP       200.00     0  00:00              1.00
  CC-S2                PUMP       200.00     0  00:00              1.00
  JK-R1                PUMP      1000.00     0  00:00              1.00
  JK-R2                PUMP      1000.00     0  00:00              1.00
  JK-S                 PUMP       300.00     0  00:00              1.00
  XR-1                 PUMP        95.00     0  00:00              1.00
  XR-2                 PUMP        95.00     0  00:00              1.00
  XR-3                 PUMP        95.00     0  00:00              1.00
  XR-4                 PUMP        95.00     0  00:00              1.00
  
  
  ***************************
  Flow Classification Summary
  ***************************
  
  -------------------------------------------------------------------------------------
                      Adjusted    ---------- Fraction of Time in Flow Class ---------- 
                       /Actual         Up    Down  Sub   Sup   Up    Down  Norm  Inlet 
  Conduit               Length    Dry  Dry   Dry   Crit  Crit  Crit  Crit  Ltd   Ctrl  
  -------------------------------------------------------------------------------------
  1                       1.00   0.00  0.00  0.00  0.00  1.00  0.00  0.00  0.19  0.00
  WS02001211WS02001212    1.00   0.00  0.00  0.00  1.00  0.00  0.00  0.00  0.00  0.00
  WS02001212WS02001213    1.00   0.00  0.00  0.00  0.36  0.00  0.64  0.00  0.00  0.00
  WS02001213WS02003059    1.00   0.00  0.00  0.00  0.99  0.00  0.00  0.00  0.00  0.00
  WS02003059WS02003060    1.00   0.00  0.00  0.00  1.00  0.00  0.00  0.00  0.00  0.00
  WS02003060WS02003069    1.00   0.00  0.00  0.00  0.99  0.01  0.00  0.00  0.00  0.00
  WS02003066WSF200        1.00   0.02  0.10  0.00  0.00  0.88  0.00  0.00  0.86  0.00
  WS02003067WS02003066    1.00   0.10  0.02  0.00  0.89  0.00  0.00  0.00  0.00  0.00
  WS02003069WS02003072    1.00   0.00  0.00  0.00  0.99  0.01  0.00  0.00  0.00  0.00
  WS02003072WS02003073    1.00   0.00  0.00  0.00  0.00  0.00  0.00  1.00  0.00  0.00
  WS02004138WS02004139    1.00   0.00  0.00  0.00  0.99  0.01  0.00  0.00  1.00  0.00
  WS02004139WS02001211    1.00   0.00  0.00  0.00  1.00  0.00  0.00  0.00  0.00  0.00
  WS02004401WS02004402    1.00   0.02  0.00  0.00  0.98  0.00  0.00  0.00  0.00  0.00
  WS02004402WS02004403    1.00   0.02  0.00  0.00  0.98  0.00  0.00  0.00  0.00  0.00
  WS02004403WS02004404    1.00   0.00  0.03  0.00  0.97  0.00  0.00  0.00  0.00  0.00
  WS02004404WS02004405    1.00   0.00  0.00  0.00  1.00  0.00  0.00  0.00  0.00  0.00
  WS02004405WS02004406    1.00   0.00  0.00  0.00  1.00  0.00  0.00  0.00  0.00  0.00
  WS02004406WS02004407    1.00   0.00  0.05  0.00  0.95  0.00  0.00  0.00  0.00  0.00
  WS02004407WS02004409    1.00   0.05  0.00  0.00  0.94  0.01  0.00  0.00  0.94  0.00
  WS02004409WS02004410    1.00   0.05  0.00  0.00  0.95  0.00  0.00  0.00  0.02  0.00
  WS02004410WS02004411    1.00   0.05  0.00  0.00  0.95  0.00  0.00  0.00  0.00  0.00
  WS02004411WS02004412    1.00   0.05  0.00  0.00  0.95  0.00  0.00  0.00  0.00  0.00
  WS02004412WS02004413    1.00   0.05  0.00  0.00  0.94  0.00  0.00  0.00  0.01  0.00
  WS02004413WS02003067    1.00   0.06  0.04  0.00  0.00  0.00  0.90  0.00  0.00  0.00
  WS02006109WS02006110    1.00   0.00  0.01  0.00  0.98  0.00  0.01  0.00  0.00  0.00
  WS02006110WS02006113    1.00   0.01  0.01  0.00  0.98  0.00  0.00  0.00  0.00  0.00
  WS02006111WS02006112    1.00   0.02  0.00  0.00  0.98  0.00  0.00  0.00  0.98  0.00
  WS02006112WS02006115    1.00   0.02  0.00  0.00  0.97  0.00  0.00  0.00  0.00  0.00
  WS02006113WS02006111    1.00   0.02  0.00  0.00  0.00  0.98  0.00  0.00  0.11  0.00
  WS02006115WS02006116    1.00   0.02  0.00  0.00  0.97  0.00  0.00  0.01  0.00  0.00
  WS02006116WS02004401    1.00   0.02  0.00  0.00  0.98  0.00  0.00  0.00  0.00  0.00
  WS02006228WS02006109    1.00   0.00  0.00  0.00  1.00  0.00  0.00  0.00  0.00  0.00
  WS02006229WS02006228    1.00   0.00  0.00  0.00  0.99  0.00  0.00  0.01  0.00  0.00
  WS02006230WS02006229    1.00   0.00  0.00  0.00  0.99  0.00  0.00  0.01  0.00  0.00
  WS02006231WS02006230    1.00   0.00  0.00  0.00  0.22  0.00  0.78  0.00  0.00  0.00
  WS02006232WS02006231    1.00   0.00  0.00  0.00  0.99  0.00  0.01  0.00  0.00  0.00
  WS02006234WS02006232    1.00   0.00  0.00  0.00  1.00  0.00  0.00  0.00  0.53  0.00
  WS02006235WS02006234    1.00   0.00  0.00  0.00  0.43  0.00  0.57  0.00  0.00  0.00
  WS02006238WS02006235    1.00   0.00  0.00  0.00  1.00  0.00  0.00  0.00  0.00  0.00
  WS02006239WS02006238    1.00   0.00  0.00  0.00  1.00  0.00  0.00  0.00  0.62  0.00
  WS02006240WS02006239    1.00   0.00  0.00  0.00  0.34  0.00  0.00  0.66  0.01  0.00
  WS02006242WS02006240    1.00   0.00  0.00  0.00  0.99  0.00  0.01  0.00  0.00  0.00
  WS02006243WS02006242    1.00   0.00  0.00  0.00  0.99  0.00  0.00  0.01  0.71  0.00
  WS02006245WS02006243    1.00   0.00  0.00  0.00  0.39  0.00  0.00  0.60  0.00  0.00
  WS02006247WS02006245    1.00   0.00  0.00  0.00  0.99  0.00  0.00  0.01  0.00  0.00
  WS02006248WS02006247    1.00   0.00  0.00  0.00  0.99  0.00  0.00  0.01  0.12  0.00
  WS02006249WS02006248    1.00   0.00  0.00  0.00  0.29  0.00  0.71  0.00  0.00  0.00
  WS02006251WS02006249    1.00   0.00  0.00  0.00  1.00  0.00  0.00  0.00  0.72  0.00
  WS02006252WS02006251    1.00   0.00  0.75  0.00  0.00  0.00  0.25  0.00  0.00  0.00
  WS02006256WS02006235    1.00   0.00  0.00  0.00  1.00  0.00  0.00  0.00  0.00  0.00
  WSF200WS02003060        1.00   0.00  0.02  0.00  0.98  0.00  0.00  0.00  0.70  0.00
  YS02001580YS02001583    1.00   0.24  0.57  0.00  0.19  0.00  0.00  0.00  0.66  0.00
  YS02001583YS02001586    1.00   0.49  0.27  0.00  0.24  0.00  0.00  0.00  0.67  0.00
  YS02001586YS02001590    1.00   0.13  0.00  0.00  0.39  0.04  0.00  0.45  0.32  0.00
  YS02001590YS02001593    1.00   0.13  0.01  0.00  0.13  0.00  0.74  0.00  0.00  0.00
  YS02001593YS02001596    1.00   0.13  0.00  0.00  0.77  0.00  0.00  0.09  0.64  0.00
  YS02001596YS02001600    1.00   0.14  0.00  0.00  0.80  0.00  0.00  0.06  0.02  0.00
  YS02001600YS02001601    1.00   0.13  0.01  0.00  0.86  0.00  0.00  0.00  0.04  0.00
  YS02001601YS02001602    1.00   0.13  0.01  0.00  0.87  0.00  0.00  0.00  0.00  0.00
  YS02001602YS02001605    1.00   0.14  0.00  0.00  0.86  0.00  0.00  0.00  0.00  0.00
  YS02001605YS02001607    1.00   0.14  0.00  0.00  0.86  0.00  0.00  0.00  0.00  0.00
  YS02001607YS02001610    1.00   0.13  0.01  0.00  0.86  0.00  0.00  0.00  0.02  0.00
  YS02001610YS02001613    1.00   0.13  0.00  0.00  0.87  0.00  0.00  0.00  0.00  0.00
  YS02001613YS02001616    1.00   0.13  0.00  0.00  0.87  0.00  0.00  0.00  0.00  0.00
  YS02001616YS02001619    1.00   0.13  0.00  0.00  0.87  0.00  0.00  0.00  0.00  0.00
  YS02001619YS02001622    1.00   0.13  0.00  0.00  0.87  0.00  0.00  0.00  0.00  0.00
  YS02001622YS02001625    1.00   0.13  0.00  0.00  0.87  0.00  0.00  0.00  0.05  0.00
  YS02001625YS02001629    1.00   0.13  0.05  0.00  0.78  0.00  0.04  0.00  0.00  0.00
  YS02001629YS02163301    1.00   0.15  0.01  0.00  0.83  0.00  0.00  0.00  0.00  0.00
  YS02001633YS02163601    1.00   0.00  0.01  0.00  0.99  0.00  0.00  0.00  0.15  0.00
  YS02001641YS02001644    1.00   0.00  0.01  0.00  0.99  0.00  0.00  0.00  0.00  0.00
  YS02001644YS02001647    1.00   0.00  0.17  0.00  0.83  0.00  0.00  0.00  0.00  0.00
  YS02001647YS02001649    1.00   0.00  0.17  0.00  0.81  0.02  0.00  0.00  0.01  0.00
  YS02001649YS02001757    1.00   0.00  0.00  0.00  0.97  0.03  0.00  0.00  0.19  0.00
  YS02001652YS02001649    1.00   0.00  0.00  0.00  0.96  0.03  0.00  0.00  0.17  0.00
  YS02001655YS02001652    1.00   0.00  0.00  0.00  0.77  0.01  0.00  0.22  0.01  0.00
  YS02001658YS02001655    1.00   0.00  0.14  0.00  0.76  0.10  0.00  0.00  0.04  0.00
  YS02001661YS02001658    1.00   0.14  0.00  0.00  0.75  0.11  0.00  0.00  0.00  0.00
  YS02001664YS02001661    1.00   0.13  0.00  0.00  0.83  0.05  0.00  0.00  0.86  0.00
  YS02001745YS02001748    1.00   0.00  0.00  0.00  0.75  0.00  0.00  0.25  0.00  0.00
  YS02001748YS02001751    1.00   0.00  0.00  0.00  0.89  0.11  0.00  0.00  0.13  0.00
  YS02001751YS02001754    1.00   0.00  0.00  0.00  0.76  0.00  0.00  0.23  0.00  0.00
  YS02001754YS02001757    1.00   0.00  0.00  0.00  1.00  0.00  0.00  0.00  0.23  0.00
  YS02001757CaochengTiaoxuchi    1.00   0.00  0.00  0.00  0.98  0.02  0.00  0.00  0.21  0.00
  YS02001759YS02001757    1.00   0.00  0.00  0.00  1.00  0.00  0.00  0.00  0.06  0.00
  YS02001762YS02001759    1.00   0.00  0.00  0.00  1.00  0.00  0.00  0.00  0.04  0.00
  YS02001765YS02001762    1.00   0.00  0.00  0.00  1.00  0.00  0.00  0.00  0.15  0.00
  YS02001767YS02001765    1.00   0.00  0.00  0.00  1.00  0.00  0.00  0.00  0.00  0.00
  YS02001770YS02001767    1.00   0.00  0.00  0.00  1.00  0.00  0.00  0.00  0.00  0.00
  YS02001774YS02001770    1.00   0.00  0.13  0.00  0.87  0.00  0.00  0.00  0.03  0.00
  YS02001779YS02001774    1.00   0.00  0.00  0.00  1.00  0.00  0.00  0.00  0.18  0.00
  YS02001783YS02001784    1.00   0.00  0.18  0.00  0.82  0.00  0.00  0.00  0.00  0.00
  YS02001784YS02001785    1.00   0.00  0.00  0.00  1.00  0.00  0.00  0.00  0.17  0.00
  YS02001786YS02001788    1.00   0.00  0.00  0.00  0.95  0.05  0.00  0.00  0.00  0.00
  YS02001788YS02001790    1.00   0.00  0.00  0.00  0.95  0.05  0.00  0.00  0.19  0.00
  YS02001790YS02001791    1.00   0.00  0.00  0.00  0.78  0.22  0.00  0.00  0.03  0.00
  YS02001791YS02001793    1.00   0.00  0.00  0.00  0.77  0.23  0.00  0.00  0.00  0.00
  YS02001793JiankangQianchi    1.00   0.00  0.00  0.00  0.93  0.06  0.00  0.00  0.21  0.00
  YS02001882YS02001884    1.00   0.15  0.01  0.00  0.84  0.00  0.00  0.00  0.00  0.00
  YS02001884YS02001887    1.00   0.06  0.05  0.00  0.89  0.00  0.00  0.00  0.00  0.00
  YS02001887YS02001890    1.00   0.00  0.00  0.00  0.97  0.00  0.03  0.00  0.00  0.00
  YS02001890YS02001895    1.00   0.00  0.16  0.00  0.83  0.00  0.00  0.00  0.00  0.00
  YS02001895YS02001898    1.00   0.17  0.00  0.00  0.81  0.00  0.02  0.00  0.00  0.00
  YS02001898YS02001901    1.00   0.17  0.00  0.00  0.83  0.00  0.00  0.00  0.01  0.00
  YS02001901YS02001904    1.00   0.17  0.00  0.00  0.83  0.00  0.00  0.00  0.00  0.00
  YS02001904YS02001907    1.00   0.00  0.16  0.00  0.83  0.00  0.00  0.00  0.00  0.00
  YS02001907YS02006553    1.00   0.00  0.02  0.00  0.98  0.00  0.00  0.00  0.00  0.00
  YS02001910YS02001907    1.00   0.00  0.00  0.00  0.97  0.00  0.00  0.03  0.12  0.00
  YS02001915YS02001910    1.00   0.00  0.00  0.00  0.97  0.03  0.00  0.00  0.16  0.00
  YS02001918YS02001915    1.00   0.00  0.01  0.00  0.98  0.02  0.00  0.00  0.77  0.00
  YS02001920YS02001918    1.00   0.00  0.01  0.00  0.99  0.00  0.00  0.00  0.00  0.00
  YS02001923YS02001920    1.00   0.00  0.00  0.00  1.00  0.00  0.00  0.00  0.93  0.00
  YS02001926YS02001923    1.00   0.00  0.07  0.00  0.05  0.00  0.87  0.00  0.00  0.00
  YS02001929YS02001926    1.00   0.00  0.13  0.00  0.87  0.00  0.00  0.00  0.83  0.00
  YS02006553YS02006556    1.00   0.01  0.00  0.00  0.99  0.00  0.00  0.00  0.03  0.00
  YS02006556YS02006558    1.00   0.00  0.00  0.00  1.00  0.00  0.00  0.00  0.00  0.00
  YS02006558YS02006561    1.00   0.18  0.00  0.00  0.07  0.75  0.00  0.00  0.18  0.00
  YS02006561YS02001783    1.00   0.18  0.00  0.00  0.77  0.05  0.00  0.00  0.72  0.00
  YS02163301YS02001633    1.00   0.00  0.15  0.00  0.85  0.00  0.00  0.00  0.00  0.00
  YS02163601YS02164001    1.00   0.00  0.08  0.00  0.92  0.00  0.00  0.00  0.00  0.00
  YS02164001YS02001641    1.00   0.01  0.07  0.00  0.92  0.00  0.00  0.00  0.06  0.00
  
  
  *************************
  Conduit Surcharge Summary
  *************************
  
  ----------------------------------------------------------------------------
                                                           Hours        Hours 
                         --------- Hours Full --------   Above Full   Capacity
  Conduit                Both Ends  Upstream  Dnstream   Normal Flow   Limited
  ----------------------------------------------------------------------------
  WS02003072WS02003073        0.01      0.01      0.01      2.31         0.01
  WS02004404WS02004405        0.01      0.01      0.01      2.16         0.01
  WS02006109WS02006110        0.01      0.01      1.61      0.01         0.01
  WS02006110WS02006113        0.01      0.01      1.55      0.01         0.01
  WS02006111WS02006112        0.01      0.01      1.77      0.01         0.01
  WS02006228WS02006109        1.49      1.61      1.49      1.91         1.49
  WS02006229WS02006228        1.47      1.51      1.47      1.80         1.47
  WS02006230WS02006229        1.70      1.76      1.70      2.43         1.70
  WS02006231WS02006230        0.01      0.01      0.01      2.28         0.01
  WS02006232WS02006231        0.01      0.01      1.62      0.01         0.01
  WS02006234WS02006232        1.42      1.42      1.62      0.01         0.01
  WS02006235WS02006234        0.01      0.01      1.51      2.20         0.01
  WS02006238WS02006235        1.53      1.53      1.63      0.01         0.01
  WS02006239WS02006238        1.56      1.61      1.56      1.84         1.56
  WS02006240WS02006239        1.52      1.54      1.52      1.86         1.52
  WS02006242WS02006240        1.52      1.52      1.72      1.93         0.01
  WS02006243WS02006242        1.57      1.57      1.67      0.01         0.01
  WS02006245WS02006243        1.55      1.57      1.55      1.91         1.54
  WS02006247WS02006245        1.55      1.60      1.55      2.01         1.55
  WS02006248WS02006247        1.56      1.56      1.58      0.01         0.01
  WS02006249WS02006248        1.54      1.54      1.57      2.00         0.01
  WS02006251WS02006249        1.57      1.59      1.57      1.98         1.57
  WS02006252WS02006251        2.01      2.01      2.01      2.01         0.01
  WS02006256WS02006235        2.24      2.24      3.00      0.02         0.01
  YS02001580YS02001583        0.50      0.50      0.55      0.01         0.01
  YS02001583YS02001586        0.51      0.51      0.71      0.01         0.01
  YS02001586YS02001590        0.72      0.72      0.80      0.01         0.01
  YS02001590YS02001593        0.81      0.81      0.83      0.78         0.01
  YS02001593YS02001596        0.82      0.82      0.99      0.01         0.01
  YS02001596YS02001600        1.13      1.13      1.42      0.01         0.01
  YS02001600YS02001601        6.12      6.12      6.31      0.01         0.01
  YS02001601YS02001602        6.26      6.26      6.32      0.95         0.01
  YS02001602YS02001605        6.24      6.24      6.26      2.05         0.11
  YS02001605YS02001607        6.21      6.24      6.21      1.22         1.12
  YS02001607YS02001610        1.15      1.15      1.30      0.01         0.01
  YS02001610YS02001613        1.16      1.16      1.30      0.01         0.01
  YS02001613YS02001616        1.05      1.05      1.16      0.01         0.01
  YS02001616YS02001619        1.01      1.01      1.05      0.01         0.01
  YS02001619YS02001622        1.01      1.01      1.06      0.58         0.54
  YS02001622YS02001625        1.06      1.06      6.11      0.01         0.01
  YS02001625YS02001629        0.97      0.97      6.11      0.01         0.01
  YS02001629YS02163301        6.11      6.11      6.12      0.05         0.05
  YS02001633YS02163601        6.12      6.12      6.13      0.08         0.09
  YS02001641YS02001644        6.09      6.10      6.09      1.31         1.11
  YS02001644YS02001647        6.04      6.04      6.09      0.05         0.01
  YS02001647YS02001649        6.04      6.04      6.05      0.01         0.01
  YS02001649YS02001757        6.04      6.05      6.04      0.07         0.03
  YS02001652YS02001649        6.03      6.03      6.05      0.01         0.01
  YS02001655YS02001652        0.96      0.96      6.03      0.01         0.01
  YS02001658YS02001655        0.16      0.16      0.96      0.01         0.01
  YS02001661YS02001658        0.02      0.02      0.16      0.01         0.01
  YS02001664YS02001661        0.01      0.01      0.03      0.01         0.01
  YS02001745YS02001748        0.01      0.01      0.08      0.01         0.01
  YS02001748YS02001751        0.14      0.14      0.79      0.01         0.01
  YS02001751YS02001754        0.79      0.79      6.01      0.01         0.01
  YS02001754YS02001757        6.02      6.02      6.04      0.01         0.01
  YS02001757CaochengTiaoxuchi        6.00      6.04      6.00      0.27         0.20
  YS02001759YS02001757        6.03      6.03      6.04      0.01         0.02
  YS02001762YS02001759        6.03      6.03      6.03      0.01         0.02
  YS02001765YS02001762        6.03      6.03      6.03      0.01         0.01
  YS02001767YS02001765        6.03      6.03      6.03      0.01         0.02
  YS02001770YS02001767        6.03      6.03      6.03      0.42         0.45
  YS02001774YS02001770        6.03      6.03      6.03      0.01         0.01
  YS02001779YS02001774        6.02      6.02      6.03      0.01         0.01
  YS02001783YS02001784        0.59      0.59      0.60      0.55         0.52
  YS02001784YS02001785        0.59      0.60      0.59      0.76         0.59
  YS02001786YS02001788        0.59      0.59      0.59      0.67         0.59
  YS02001788YS02001790        0.59      0.59      6.09      0.01         0.01
  YS02001790YS02001791        6.09      6.09      6.09      0.33         0.34
  YS02001791YS02001793        6.09      6.09      6.12      0.01         0.01
  YS02001793JiankangQianchi        6.11      6.11      6.31      0.01         0.01
  YS02001882YS02001884        0.44      0.44      0.45      0.01         0.01
  YS02001884YS02001887        0.46      0.46      0.47      0.01         0.01
  YS02001887YS02001890        0.49      0.49      0.50      0.08         0.01
  YS02001890YS02001895        0.43      0.43      0.51      0.01         0.01
  YS02001895YS02001898        0.42      0.42      0.43      0.01         0.01
  YS02001898YS02001901        0.43      0.43      0.46      0.01         0.01
  YS02001901YS02001904        0.46      0.46      0.46      0.01         0.01
  YS02001904YS02001907        0.46      0.46      0.67      0.01         0.01
  YS02001907YS02006553        0.77      0.77      0.83      0.01         0.01
  YS02001910YS02001907        0.51      0.51      0.65      0.01         0.01
  YS02001915YS02001910        0.43      0.43      0.51      0.01         0.01
  YS02001918YS02001915        0.35      0.35      0.43      0.01         0.01
  YS02001920YS02001918        0.35      0.35      0.36      0.01         0.01
  YS02001923YS02001920        0.30      0.30      0.36      0.01         0.01
  YS02001926YS02001923        0.03      0.03      0.04      0.01         0.01
  YS02001929YS02001926        0.01      0.01      0.04      0.01         0.01
  YS02006553YS02006556        0.58      0.58      0.67      0.01         0.01
  YS02006556YS02006558        0.62      0.62      0.68      0.01         0.01
  YS02006558YS02006561        0.47      0.57      0.47      0.73         0.47
  YS02006561YS02001783        0.39      0.39      0.59      0.01         0.01
  YS02163301YS02001633        6.12      6.12      6.12      0.01         0.01
  YS02163601YS02164001        6.10      6.10      6.13      0.06         0.01
  YS02164001YS02001641        6.10      6.10      6.10      0.53         0.49
  
  
  ***************
  Pumping Summary
  ***************
  
  ---------------------------------------------------------------------------------------------------------
                                                  Min       Avg       Max     Total     Power    % Time Off
                        Percent   Number of      Flow      Flow      Flow    Volume     Usage    Pump Curve
  Pump                 Utilized   Start-Ups       LPS       LPS       LPS  10^6 ltr     Kw-hr    Low   High
  ---------------------------------------------------------------------------------------------------------
  CC-R1                    1.06           1      0.00    683.00    683.00     0.208      3.51    0.0  100.0
  CC-R2                    1.06           1      0.00    683.00    683.00     0.208      3.51    0.0  100.0
  CC-S1                   25.12           3      0.00    200.00    200.00     1.447      6.67    0.0   53.9
  CC-S2                   25.12           3      0.00    200.00    200.00     1.447      6.67    0.0   53.9
  JK-R1                    0.97           2      0.00    347.46   1000.00     0.078      0.47    0.0    0.0
  JK-R2                    0.97           2      0.00    347.46   1000.00     0.078      0.47    0.0    0.0
  JK-S                     0.97           2      0.00    104.30    300.00     0.023      0.44    0.0    0.0
  XR-1                   100.00           1      0.00     95.00     95.00     2.736     68.18    0.0    0.0
  XR-2                   100.00           1      0.00     95.00     95.00     2.736     68.18    0.0    0.0
  XR-3                   100.00           1      0.00     95.00     95.00     2.736     68.18    0.0    0.0
  XR-4                   100.00           1      0.00     95.00     95.00     2.736     68.18    0.0    0.0
  

  Analysis begun on:  Wed Nov  5 16:29:02 2025
  Analysis ended on:  Wed Nov  5 16:29:05 2025
  Total elapsed time: 00:00:03