
  EPA STORM WATER MANAGEMENT MODEL - VERSION 5.2 (Build 5.2.4)
  PYSWMM TOOLKIT API - VERSION v1.0 (2023-11-27)
  ------------------------------------------------------------

  WARNING 04: minimum elevation drop used for Conduit WS02004404WS02004405
  WARNING 03: negative offset ignored for Link YS02001904YS02001907
  
  ****************
  Analysis Options
  ****************
  Flow Units ............... LPS
  Process Models:
    Rainfall/Runoff ........ YES
    RDII ................... NO
    Snowmelt ............... NO
    Groundwater ............ NO
    Flow Routing ........... YES
    Ponding Allowed ........ NO
    Water Quality .......... NO
  Infiltration Method ...... HORTON
  Flow Routing Method ...... DYNWAVE
  Surcharge Method ......... EXTRAN
  Starting Date ............ 08/28/2015 08:00:00
  Ending Date .............. 08/28/2015 16:00:00
  Antecedent Dry Days ...... 8.0
  Report Time Step ......... 00:01:00
  Wet Time Step ............ 00:01:00
  Dry Time Step ............ 00:01:00
  Routing Time Step ........ 30.00 sec
  Variable Time Step ....... YES
  Maximum Trials ........... 8
  Number of Threads ........ 4
  Head Tolerance ........... 0.001500 m
  
  
  **************************        Volume         Depth
  Runoff Quantity Continuity     hectare-m            mm
  **************************     ---------       -------
  Initial LID Storage ......         0.049         1.488
  Total Precipitation ......         1.554        46.853
  Evaporation Loss .........         0.000         0.000
  Infiltration Loss ........         0.073         2.209
  Surface Runoff ...........         1.128        34.004
  Final Storage ............         0.403        12.160
  Continuity Error (%) .....        -0.064
  
  
  **************************        Volume        Volume
  Flow Routing Continuity        hectare-m      10^6 ltr
  **************************     ---------     ---------
  Dry Weather Inflow .......         0.602         6.020
  Wet Weather Inflow .......         1.128        11.280
  Groundwater Inflow .......         0.000         0.000
  RDII Inflow ..............         0.000         0.000
  External Inflow ..........         0.105         1.045
  External Outflow .........         1.471        14.715
  Flooding Loss ............         0.364         3.636
  Evaporation Loss .........         0.000         0.000
  Exfiltration Loss ........         0.000         0.000
  Initial Stored Volume ....         0.303         3.031
  Final Stored Volume ......         0.761         7.606
  Continuity Error (%) .....       -21.427
  
  
  *************************
  Highest Continuity Errors
  *************************
  Node YS02001774 (39.10%)
  Node WS02006256 (-5.87%)
  Node YS02001583 (-5.44%)
  Node YS02001884 (5.28%)
  Node YS02001754 (4.47%)
  
  
  ***************************
  Time-Step Critical Elements
  ***************************
  Link WS02001212WS02001213 (29.02%)
  Link WS02006238WS02006235 (20.12%)
  Link WS02006252WS02006251 (14.35%)
  Link WS02006235WS02006234 (13.09%)
  Link WS02003066WSF200 (4.88%)
  
  
  ********************************
  Highest Flow Instability Indexes
  ********************************
  Link WS02006113WS02006111 (35)
  Link WS02006111WS02006112 (23)
  Link WS02006256WS02006235 (19)
  Link WS02006238WS02006235 (16)
  Link WS02006110WS02006113 (16)
  
  
  *********************************
  Most Frequent Nonconverging Nodes
  *********************************
  Node CC-1 (9.09%)
  Node CC-2 (9.09%)
  Node JK-1 (9.09%)
  Node JK-2 (9.09%)
  Node WSC (9.09%)
  
  
  *************************
  Routing Time Step Summary
  *************************
  Minimum Time Step           :     0.01 sec
  Average Time Step           :     3.34 sec
  Maximum Time Step           :     6.46 sec
  % of Time in Steady State   :     0.00
  Average Iterations per Step :     2.85
  % of Steps Not Converging   :     9.09
  Time Step Frequencies       :
     30.000 - 13.228 sec      :     0.00 %
     13.228 -  5.833 sec      :    27.98 %
      5.833 -  2.572 sec      :    32.04 %
      2.572 -  1.134 sec      :    20.19 %
      1.134 -  0.500 sec      :    19.79 %
  
  
  ***************************
  Subcatchment Runoff Summary
  ***************************
  
  ------------------------------------------------------------------------------------------------------------------------------
                            Total      Total      Total      Total     Imperv       Perv      Total       Total     Peak  Runoff
                           Precip      Runon       Evap      Infil     Runoff     Runoff     Runoff      Runoff   Runoff   Coeff
  Subcatchment                 mm         mm         mm         mm         mm         mm         mm    10^6 ltr      LPS
  ------------------------------------------------------------------------------------------------------------------------------
  sub60                     46.85       0.00       0.00       1.31      30.89       3.03      33.92        0.45   319.01   0.724
  sub61                     46.85       0.00       0.00       2.02      30.87       4.50      35.36        0.65   464.21   0.755
  sub62                     46.85       0.00       0.00       0.89      32.90       2.06      34.96        0.96   633.82   0.746
  sub63                     46.85       0.00       0.00       3.71      26.44       7.42      33.86        0.77   518.93   0.723
  sub64                     46.85       0.00       0.00       1.78      30.10       3.70      33.80        0.81   516.51   0.721
  sub65                     46.85       0.00       0.00       1.63      32.48       3.38      35.85        0.99   602.98   0.765
  sub66                     46.85       0.00       0.00       4.34      25.55       6.44      31.98        1.49   769.17   0.683
  sub67                     46.85       0.00       0.00       0.89      33.74       2.14      35.87        0.67   497.11   0.766
  sub68                     46.85       0.00       0.00       1.55      29.79       3.45      33.24        0.91   631.00   0.710
  sub69                     46.85       0.00       0.00       1.40      31.48       4.17      35.65        1.32   781.63   0.761
  sub70                     46.85       0.00       0.00       4.74      25.21       8.30      33.51        0.97   444.89   0.715
  sub71                     46.85       0.00       0.00       0.82      29.88       1.86      31.74        0.83   523.82   0.677
  sub72                     46.85       0.00       0.00       0.79      32.27       1.72      33.99        0.47   268.76   0.726
  

  ***********************
  LID Performance Summary
  ***********************

  --------------------------------------------------------------------------------------------------------------------
                                         Total      Evap     Infil   Surface    Drain    Initial     Final  Continuity
                                        Inflow      Loss      Loss   Outflow   Outflow   Storage   Storage       Error
  Subcatchment      LID Control             mm        mm        mm        mm        mm        mm        mm           %
  --------------------------------------------------------------------------------------------------------------------
  sub60             GreenRoof            46.85      0.00      0.00      0.00      0.00      7.05     54.01       -0.20
  sub61             GreenRoof            46.85      0.00      0.00      0.00      0.00      7.05     54.01       -0.20
  sub62             GreenRoof            46.85      0.00      0.00      0.00      0.00      7.05     54.01       -0.20
  sub63             GreenRoof            46.85      0.00      0.00      0.00      0.00      7.05     54.01       -0.20
  sub64             GreenRoof            46.85      0.00      0.00      0.00      0.00      7.05     54.01       -0.20
  sub65             GreenRoof            46.85      0.00      0.00      0.00      0.00      7.05     54.01       -0.20
  sub66             GreenRoof            46.85      0.00      0.00      0.00      0.00      7.05     54.01       -0.20
  sub67             GreenRoof            46.85      0.00      0.00      0.00      0.00      7.05     54.01       -0.20
  sub68             GreenRoof            46.85      0.00      0.00      0.00      0.00      7.05     54.01       -0.20
  sub69             GreenRoof            46.85      0.00      0.00      0.00      0.00      7.05     54.01       -0.20
  sub70             GreenRoof            46.85      0.00      0.00      0.00      0.00      7.05     54.01       -0.20
  sub71             GreenRoof            46.85      0.00      0.00      0.00      0.00      7.05     54.01       -0.20
  sub72             GreenRoof            46.85      0.00      0.00      0.00      0.00      7.05     54.01       -0.20
  
  ******************
  Node Depth Summary
  ******************
  
  ---------------------------------------------------------------------------------
                                 Average  Maximum  Maximum  Time of Max    Reported
                                   Depth    Depth      HGL   Occurrence   Max Depth
  Node                 Type       Meters   Meters   Meters  days hr:min      Meters
  ---------------------------------------------------------------------------------
  WS02001211           JUNCTION     0.76     0.78     5.62     0  03:21        0.78
  WS02001212           JUNCTION     0.46     0.49     5.55     0  03:21        0.49
  WS02001213           JUNCTION     0.68     0.73     5.49     0  03:20        0.73
  WS02003059           JUNCTION     0.72     0.78     5.47     0  03:20        0.78
  WS02003060           JUNCTION     0.37     0.47     5.41     0  03:19        0.47
  WS02003066           JUNCTION     0.14     0.27     5.82     0  03:19        0.27
  WS02003067           JUNCTION     0.41     0.65     5.97     0  03:18        0.65
  WS02003069           JUNCTION     0.41     0.54     5.12     0  03:20        0.54
  WS02003072           JUNCTION     0.48     0.60     4.97     0  03:20        0.60
  WS02003073           JUNCTION     0.28     0.37     4.43     0  03:21        0.37
  WS02004138           JUNCTION     0.19     0.20     7.45     0  00:00        0.19
  WS02004139           JUNCTION     0.71     0.73     5.64     0  03:22        0.73
  WS02004401           JUNCTION     0.49     0.75     6.75     0  03:16        0.75
  WS02004402           JUNCTION     0.52     0.78     6.74     0  03:16        0.78
  WS02004403           JUNCTION     0.55     0.80     6.73     0  03:16        0.80
  WS02004404           JUNCTION     0.62     0.88     6.73     0  03:16        0.88
  WS02004405           JUNCTION     0.62     0.88     6.73     0  03:16        0.88
  WS02004406           JUNCTION     0.64     0.88     6.71     0  03:16        0.88
  WS02004407           JUNCTION     0.12     0.26     6.57     0  03:17        0.26
  WS02004409           JUNCTION     0.27     0.58     6.35     0  03:17        0.58
  WS02004410           JUNCTION     0.30     0.59     6.31     0  03:17        0.59
  WS02004411           JUNCTION     0.33     0.61     6.29     0  03:18        0.61
  WS02004412           JUNCTION     0.35     0.62     6.26     0  03:18        0.62
  WS02004413           JUNCTION     0.51     0.79     6.26     0  03:18        0.79
  WS02006109           JUNCTION     0.55     0.83     7.45     0  03:18        0.83
  WS02006110           JUNCTION     0.56     0.82     7.41     0  03:18        0.82
  WS02006111           JUNCTION     0.14     0.25     6.96     0  03:15        0.25
  WS02006112           JUNCTION     0.64     0.93     6.82     0  03:15        0.93
  WS02006113           JUNCTION     0.20     0.39     7.29     0  02:12        0.39
  WS02006115           JUNCTION     0.37     0.65     6.78     0  03:15        0.65
  WS02006116           JUNCTION     0.46     0.73     6.77     0  03:15        0.73
  WS02006228           JUNCTION     0.53     0.84     7.49     0  03:18        0.84
  WS02006229           JUNCTION     0.50     0.82     7.52     0  02:38        0.82
  WS02006230           JUNCTION     0.49     0.86     7.60     0  02:38        0.86
  WS02006231           JUNCTION     0.29     0.60     7.72     0  02:38        0.60
  WS02006232           JUNCTION     0.41     0.75     7.79     0  02:27        0.75
  WS02006234           JUNCTION     0.33     0.71     7.87     0  02:38        0.71
  WS02006235           JUNCTION     0.36     0.76     7.93     0  02:23        0.76
  WS02006238           JUNCTION     0.39     0.82     7.97     0  02:28        0.80
  WS02006239           JUNCTION     0.36     0.81     8.02     0  02:19        0.80
  WS02006240           JUNCTION     0.35     0.79     8.08     0  02:22        0.79
  WS02006242           JUNCTION     0.41     0.91     8.17     0  02:22        0.90
  WS02006243           JUNCTION     0.35     0.84     8.26     0  02:22        0.84
  WS02006245           JUNCTION     0.35     0.86     8.34     0  02:18        0.85
  WS02006247           JUNCTION     0.37     0.89     8.39     0  02:35        0.89
  WS02006248           JUNCTION     0.35     0.86     8.45     0  02:13        0.85
  WS02006249           JUNCTION     0.37     0.90     8.49     0  02:18        0.89
  WS02006251           JUNCTION     0.37     0.91     8.58     0  02:20        0.91
  WS02006252           JUNCTION     0.27     1.50     9.74     0  00:00        0.59
  WS02006256           JUNCTION     0.59     2.35     9.28     0  00:00        2.35
  WSF200               JUNCTION     0.11     0.25     5.48     0  03:19        0.25
  YS02001580           JUNCTION     0.06     1.05     9.59     0  02:09        0.77
  YS02001583           JUNCTION     0.09     1.03     9.53     0  02:09        0.81
  YS02001586           JUNCTION     0.15     1.13     9.30     0  02:09        1.13
  YS02001590           JUNCTION     0.23     1.40     9.26     0  02:09        1.38
  YS02001593           JUNCTION     0.17     1.33     9.19     0  02:09        1.28
  YS02001596           JUNCTION     0.31     1.68     9.10     0  02:09        1.65
  YS02001600           JUNCTION     0.54     1.87     9.00     0  02:09        1.86
  YS02001601           JUNCTION     0.79     2.06     8.90     0  02:08        2.06
  YS02001602           JUNCTION     0.71     1.87     8.77     0  02:09        1.87
  YS02001605           JUNCTION     0.68     1.78     8.68     0  02:09        1.78
  YS02001607           JUNCTION     0.68     1.68     8.53     0  02:09        1.68
  YS02001610           JUNCTION     0.72     1.68     8.48     0  02:09        1.68
  YS02001613           JUNCTION     0.68     1.70     8.54     0  02:09        1.70
  YS02001616           JUNCTION     0.62     1.61     8.52     0  02:09        1.61
  YS02001619           JUNCTION     0.60     1.61     8.54     0  02:09        1.61
  YS02001622           JUNCTION     0.61     1.62     8.52     0  02:09        1.62
  YS02001625           JUNCTION     0.87     1.78     8.38     0  02:09        1.78
  YS02001629           JUNCTION     0.88     1.85     8.40     0  02:13        1.85
  YS02001633           JUNCTION     0.96     2.01     8.46     0  02:13        1.96
  YS02001641           JUNCTION     0.95     1.95     8.39     0  02:13        1.92
  YS02001644           JUNCTION     0.95     1.92     8.35     0  02:13        1.92
  YS02001647           JUNCTION     0.76     1.68     8.29     0  02:13        1.65
  YS02001649           JUNCTION     0.92     1.85     8.24     0  02:14        1.85
  YS02001652           JUNCTION     0.75     1.66     8.26     0  02:13        1.62
  YS02001655           JUNCTION     0.56     1.58     8.43     0  02:13        1.38
  YS02001658           JUNCTION     0.34     1.46     8.60     0  02:13        1.09
  YS02001661           JUNCTION     0.16     0.90     8.30     0  02:14        0.85
  YS02001664           JUNCTION     0.05     0.28     8.20     0  02:13        0.27
  YS02001745           JUNCTION     0.06     0.65     8.16     0  02:14        0.52
  YS02001748           JUNCTION     0.38     1.29     8.37     0  02:14        1.01
  YS02001751           JUNCTION     0.52     1.36     8.24     0  02:14        1.19
  YS02001754           JUNCTION     0.72     1.52     8.13     0  02:14        1.52
  YS02001757           JUNCTION     1.01     1.88     8.14     0  02:14        1.88
  YS02001759           JUNCTION     0.92     1.86     8.22     0  02:14        1.86
  YS02001762           JUNCTION     0.89     1.83     8.23     0  02:14        1.83
  YS02001765           JUNCTION     0.85     1.76     8.21     0  02:14        1.76
  YS02001767           JUNCTION     0.83     1.73     8.22     0  02:14        1.67
  YS02001770           JUNCTION     0.83     1.88     8.37     0  02:12        1.72
  YS02001774           JUNCTION     0.89     2.00     8.42     0  02:12        1.80
  YS02001779           JUNCTION     0.66     1.68     8.37     0  02:12        1.54
  YS02001783           JUNCTION     0.46     1.55     7.69     0  02:11        1.47
  YS02001784           JUNCTION     0.51     1.49     7.56     0  02:11        1.41
  YS02001786           JUNCTION     0.51     1.34     7.37     0  02:07        1.26
  YS02001788           JUNCTION     0.53     1.22     7.20     0  02:07        1.12
  YS02001790           JUNCTION     0.76     1.38     7.02     0  02:07        1.29
  YS02001791           JUNCTION     0.87     1.78     7.25     0  02:06        1.27
  YS02001793           JUNCTION     1.33     2.11     6.94     0  02:05        1.81
  YS02001882           JUNCTION     0.26     1.68     8.40     0  02:11        1.62
  YS02001884           JUNCTION     0.35     1.76     8.38     0  02:11        1.72
  YS02001887           JUNCTION     0.42     1.82     8.36     0  02:11        1.80
  YS02001890           JUNCTION     0.45     1.81     8.32     0  02:11        1.81
  YS02001895           JUNCTION     0.23     1.57     8.32     0  02:11        1.56
  YS02001898           JUNCTION     0.24     1.58     8.32     0  02:11        1.56
  YS02001901           JUNCTION     0.35     1.70     8.31     0  02:11        1.67
  YS02001904           JUNCTION     0.33     1.66     8.29     0  02:11        1.64
  YS02001907           JUNCTION     0.64     1.96     8.25     0  02:11        1.96
  YS02001910           JUNCTION     0.44     1.99     8.50     0  02:12        1.82
  YS02001915           JUNCTION     0.26     1.94     8.66     0  02:12        1.67
  YS02001918           JUNCTION     0.13     1.81     8.88     0  02:12        1.35
  YS02001920           JUNCTION     0.20     2.12     9.13     0  02:12        1.43
  YS02001923           JUNCTION     0.09     2.03     9.29     0  02:12        1.21
  YS02001926           JUNCTION     0.13     1.90     9.35     0  02:12        1.02
  YS02001929           JUNCTION     0.06     1.78     9.47     0  02:12        0.77
  YS02006553           JUNCTION     0.64     1.98     8.26     0  02:11        1.97
  YS02006556           JUNCTION     0.62     1.96     8.27     0  02:11        1.94
  YS02006558           JUNCTION     0.66     2.01     8.28     0  02:11        1.99
  YS02006561           JUNCTION     0.14     1.16     7.82     0  02:11        1.10
  YS02163301           JUNCTION     0.91     1.91     8.43     0  02:13        1.89
  YS02163601           JUNCTION     1.00     2.04     8.44     0  02:13        1.99
  YS02164001           JUNCTION     0.94     1.96     8.42     0  02:13        1.92
  CC-1                 OUTFALL      0.00     0.00     0.00     0  00:00        0.00
  CC-2                 OUTFALL      0.00     0.00     0.00     0  00:00        0.00
  JK-1                 OUTFALL      0.00     0.00     0.00     0  00:00        0.00
  JK-2                 OUTFALL      0.00     0.00     0.00     0  00:00        0.00
  WSC                  OUTFALL      0.28     0.37     1.04     0  03:21        0.37
  CC-storage           STORAGE      1.61     2.08     7.58     0  07:29        2.08
  JK-storage           STORAGE      4.54     5.80     6.60     0  02:07        5.80
  XR-storage           STORAGE      0.27     5.00     3.00     0  00:00        4.91
  
  
  *******************
  Node Inflow Summary
  *******************
  
  -------------------------------------------------------------------------------------------------
                                  Maximum  Maximum                  Lateral       Total        Flow
                                  Lateral    Total  Time of Max      Inflow      Inflow     Balance
                                   Inflow   Inflow   Occurrence      Volume      Volume       Error
  Node                 Type           LPS      LPS  days hr:min    10^6 ltr    10^6 ltr     Percent
  -------------------------------------------------------------------------------------------------
  WS02001211           JUNCTION      7.35   389.13     0  03:36       0.212        11.1       0.348
  WS02001212           JUNCTION      0.00   390.86     0  03:36           0        11.1       0.208
  WS02001213           JUNCTION      0.00   392.62     0  03:35           0        11.1       0.239
  WS02003059           JUNCTION      0.00   395.66     0  03:35           0          11       0.329
  WS02003060           JUNCTION     16.53   816.16     0  03:19       0.476        14.2       0.158
  WS02003066           JUNCTION      0.00   411.98     0  03:19           0        2.72       0.075
  WS02003067           JUNCTION      0.00   411.98     0  03:18           0        2.73       0.198
  WS02003069           JUNCTION      0.32   816.44     0  03:19     0.00922        14.2       0.166
  WS02003072           JUNCTION      0.00   816.41     0  03:20           0        14.2       0.214
  WS02003073           JUNCTION      1.82   818.22     0  03:20      0.0524        14.2       0.229
  WS02004138           JUNCTION      0.00   380.00     0  00:00           0        10.9       0.059
  WS02004139           JUNCTION      0.32   395.52     0  00:00     0.00924        10.9       0.407
  WS02004401           JUNCTION      0.00   412.41     0  03:16           0         2.9       0.627
  WS02004402           JUNCTION      0.00   412.40     0  03:16           0        2.88       0.601
  WS02004403           JUNCTION      0.00   412.29     0  03:16           0        2.87       0.558
  WS02004404           JUNCTION      0.16   412.43     0  03:16     0.00467        2.86       0.431
  WS02004405           JUNCTION      0.04   412.44     0  03:16      0.0011        2.84       0.645
  WS02004406           JUNCTION      0.00   412.39     0  03:16           0        2.83       1.069
  WS02004407           JUNCTION      0.00   412.27     0  03:17           0         2.8       0.195
  WS02004409           JUNCTION      0.00   412.21     0  03:17           0        2.79       0.348
  WS02004410           JUNCTION      0.00   412.15     0  03:17           0        2.78       0.381
  WS02004411           JUNCTION      0.00   412.09     0  03:17           0        2.77       0.380
  WS02004412           JUNCTION      0.00   412.08     0  03:18           0        2.76       0.419
  WS02004413           JUNCTION      0.00   412.05     0  03:18           0        2.75       0.689
  WS02006109           JUNCTION      1.23   411.81     0  03:15      0.0354           3       0.511
  WS02006110           JUNCTION      0.00   411.83     0  03:15           0        2.99       0.581
  WS02006111           JUNCTION      0.00   423.66     0  03:21           0        2.96       0.145
  WS02006112           JUNCTION      0.00   414.48     0  03:15           0        2.96       0.929
  WS02006113           JUNCTION      0.00   412.23     0  03:15           0        2.97       0.284
  WS02006115           JUNCTION      0.00   413.14     0  03:15           0        2.93       0.559
  WS02006116           JUNCTION      0.00   412.64     0  03:15           0        2.92       0.458
  WS02006228           JUNCTION      0.00   410.58     0  03:16           0        2.98       0.308
  WS02006229           JUNCTION      0.00   410.59     0  03:16           0        2.99       0.380
  WS02006230           JUNCTION     10.28   410.53     0  02:30       0.296           3       0.361
  WS02006231           JUNCTION      0.00   400.35     0  02:24           0        2.71       0.338
  WS02006232           JUNCTION      0.00   400.33     0  02:38           0        2.74       0.805
  WS02006234           JUNCTION      0.00   401.33     0  02:40           0        2.74       0.078
  WS02006235           JUNCTION      0.00   402.12     0  02:21           0        2.76       0.557
  WS02006238           JUNCTION      0.00   401.49     0  02:18           0        2.74      -0.318
  WS02006239           JUNCTION      0.00   401.54     0  02:10           0        2.73       0.050
  WS02006240           JUNCTION      0.00   401.07     0  02:25           0        2.73       0.193
  WS02006242           JUNCTION      0.00   400.77     0  02:29           0        2.74       0.460
  WS02006243           JUNCTION      0.00   400.76     0  02:12           0        2.75       0.257
  WS02006245           JUNCTION      0.00   403.42     0  02:09           0        2.78       0.919
  WS02006247           JUNCTION      0.00   401.05     0  02:15           0        2.78       0.262
  WS02006248           JUNCTION      0.00   401.08     0  02:18           0        2.79       0.320
  WS02006249           JUNCTION      0.00   465.52     0  07:46           0        2.82       0.843
  WS02006251           JUNCTION      0.08   403.37     0  07:46     0.00222        2.82       0.195
  WS02006252           JUNCTION      0.00   400.00     0  00:00           0        2.82      -0.081
  WS02006256           JUNCTION      0.00   300.00     0  00:00           0      0.0243      -5.546
  WSF200               JUNCTION      0.00   411.98     0  03:19           0        2.72       0.046
  YS02001580           JUNCTION      0.00   114.21     0  02:09           0     0.00413      -1.938
  YS02001583           JUNCTION      0.00   184.10     0  02:09           0       0.015      -5.158
  YS02001586           JUNCTION    444.89   444.89     0  02:15       0.968        0.98       0.137
  YS02001590           JUNCTION      0.00   318.39     0  02:14           0       0.907      -0.003
  YS02001593           JUNCTION      0.00   318.13     0  02:14           0       0.907       0.029
  YS02001596           JUNCTION      0.00   317.97     0  02:14           0       0.907       0.039
  YS02001600           JUNCTION      0.00   318.04     0  02:21           0       0.907       0.428
  YS02001601           JUNCTION    781.63  1099.00     0  02:14        1.32        2.22       0.392
  YS02001602           JUNCTION      0.00   519.08     0  02:08           0        1.67       0.543
  YS02001605           JUNCTION      0.00   519.30     0  02:08           0         1.6       0.842
  YS02001607           JUNCTION      0.00   519.78     0  02:08           0        1.59       1.024
  YS02001610           JUNCTION      0.00   521.02     0  02:08           0        1.58       1.067
  YS02001613           JUNCTION      0.00   520.68     0  02:08           0        1.42       1.190
  YS02001616           JUNCTION      0.00   525.13     0  02:08           0        1.41       1.001
  YS02001619           JUNCTION    769.17   933.88     0  02:10        1.49        2.89       0.471
  YS02001622           JUNCTION      0.00   933.32     0  02:10           0        2.87       0.682
  YS02001625           JUNCTION      0.00   932.53     0  02:10           0        2.86       1.431
  YS02001629           JUNCTION      0.00   931.82     0  02:10           0        2.55       0.644
  YS02001633           JUNCTION    603.18  1387.65     0  02:11       0.993        3.51       0.909
  YS02001641           JUNCTION      0.00  1388.25     0  02:11           0        3.43       0.609
  YS02001644           JUNCTION    516.55  1804.46     0  02:11       0.813        4.22       0.615
  YS02001647           JUNCTION      0.00  1804.39     0  02:11           0        4.19       0.597
  YS02001649           JUNCTION      0.00  2071.71     0  02:10           0         4.9       0.759
  YS02001652           JUNCTION      0.00   602.87     0  02:15           0       0.765       2.670
  YS02001655           JUNCTION      0.15   604.69     0  02:15     0.00443       0.777       1.931
  YS02001658           JUNCTION      0.00   686.86     0  02:13           0       0.776       0.864
  YS02001661           JUNCTION      0.00   525.17     0  02:13           0       0.771       0.065
  YS02001664           JUNCTION    518.93   518.93     0  02:13       0.769       0.769      -0.019
  YS02001745           JUNCTION    319.02   324.29     0  02:13       0.446       0.446       0.396
  YS02001748           JUNCTION      0.04   562.40     0  02:14      0.0013       0.451       0.963
  YS02001751           JUNCTION      0.01   408.01     0  02:17    0.000317       0.457       3.480
  YS02001754           JUNCTION      0.26   381.94     0  02:14     0.00749       0.456       4.684
  YS02001757           JUNCTION      0.00  3163.96     0  02:14           0        6.74       1.418
  YS02001759           JUNCTION    464.25  1141.60     0  02:12        0.65        1.48       1.561
  YS02001762           JUNCTION      0.00   686.15     0  02:12           0        0.85       2.518
  YS02001765           JUNCTION      0.00   677.65     0  02:12           0       0.874       2.858
  YS02001767           JUNCTION      0.54   668.97     0  02:12      0.0154       0.909       3.978
  YS02001770           JUNCTION    633.97   641.48     0  02:12       0.962       0.977       3.246
  YS02001774           JUNCTION      0.00   301.61     0  02:12           0      0.0646      64.196
  YS02001779           JUNCTION      0.01   277.33     0  02:12    0.000144      0.0254      91.281
  YS02001783           JUNCTION      0.00   971.81     0  02:13           0         2.6       0.256
  YS02001784           JUNCTION      1.06   972.97     0  02:13      0.0305        2.62       0.416
  YS02001786           JUNCTION      0.06   973.41     0  02:13     0.00162        2.61       0.511
  YS02001788           JUNCTION      0.07   973.04     0  02:13     0.00204         2.6       0.531
  YS02001790           JUNCTION      0.15   973.35     0  02:13     0.00446        2.59       0.666
  YS02001791           JUNCTION      0.00   973.17     0  02:13           0        2.57       0.561
  YS02001793           JUNCTION      0.00   974.04     0  02:13           0        2.56       0.641
  YS02001882           JUNCTION      0.00    53.95     0  02:09           0      0.0125       6.003
  YS02001884           JUNCTION      0.00   116.17     0  02:09           0      0.0483       5.579
  YS02001887           JUNCTION    497.56   497.59     0  02:13        0.68       0.714       0.640
  YS02001890           JUNCTION      0.00   498.06     0  02:13           0       0.672       0.775
  YS02001895           JUNCTION      0.00   485.58     0  02:13           0       0.663       0.222
  YS02001898           JUNCTION      0.00   486.11     0  02:13           0       0.661       0.068
  YS02001901           JUNCTION      0.00   486.43     0  02:13           0       0.664       0.505
  YS02001904           JUNCTION      0.00   486.50     0  02:13           0       0.668       0.439
  YS02001907           JUNCTION      0.00  1449.44     0  02:13           0        2.04       0.883
  YS02001910           JUNCTION      0.00   978.32     0  02:13           0        1.39       0.520
  YS02001915           JUNCTION    523.84   977.36     0  02:13       0.831        1.43       0.094
  YS02001918           JUNCTION      0.00   548.92     0  02:11           0        0.63      -0.023
  YS02001920           JUNCTION      2.87   457.73     0  02:13      0.0827       0.611       0.079
  YS02001923           JUNCTION      0.04   526.01     0  02:11     0.00109        0.51      -0.067
  YS02001926           JUNCTION      0.05   754.20     0  02:12      0.0015       0.487      -0.211
  YS02001929           JUNCTION    268.76   611.84     0  02:12       0.467       0.472      -0.003
  YS02006553           JUNCTION      0.00   673.43     0  02:24           0         1.7       0.700
  YS02006556           JUNCTION      0.00   674.73     0  02:24           0        1.71       0.477
  YS02006558           JUNCTION    631.88   973.17     0  02:13        0.94        2.62       0.144
  YS02006561           JUNCTION      0.00   972.13     0  02:14           0         2.6      -0.008
  YS02163301           JUNCTION      0.00   931.02     0  02:10           0        2.54       0.920
  YS02163601           JUNCTION      0.11  1388.03     0  02:11     0.00317        3.47       0.865
  YS02164001           JUNCTION      0.00  1387.59     0  02:11           0        3.45       0.577
  CC-1                 OUTFALL       0.00   683.00     0  00:00           0       0.208       0.000
  CC-2                 OUTFALL       0.00   683.00     0  00:00           0       0.208       0.000
  JK-1                 OUTFALL       0.00  1000.00     0  00:00           0      0.0791       0.000
  JK-2                 OUTFALL       0.00  1000.00     0  00:00           0      0.0791       0.000
  WSC                  OUTFALL       0.00   818.20     0  03:21           0        14.1       0.000
  CC-storage           STORAGE       0.00  3166.66     0  02:14           0        8.85       0.406
  JK-storage           STORAGE       0.00   974.18     0  02:13           0        2.69       0.595
  XR-storage           STORAGE     200.00   200.00     0  00:00        5.76        6.36     -41.886
  
  
  **********************
  Node Surcharge Summary
  **********************
  
  Surcharging occurs when water rises above the top of the highest conduit.
  ---------------------------------------------------------------------
                                               Max. Height   Min. Depth
                                   Hours       Above Crown    Below Rim
  Node                 Type      Surcharged         Meters       Meters
  ---------------------------------------------------------------------
  WS02006109           JUNCTION        1.29          0.015        1.805
  WS02006228           JUNCTION        1.28          0.013        2.187
  WS02006229           JUNCTION        1.29          0.024        2.426
  WS02006232           JUNCTION        1.35          0.050        1.430
  WS02006235           JUNCTION        1.29          0.055        1.235
  WS02006238           JUNCTION        1.32          0.101        1.329
  WS02006239           JUNCTION        1.30          0.068        1.222
  WS02006240           JUNCTION        1.30          0.080        1.310
  WS02006242           JUNCTION        1.39          0.176        0.644
  WS02006243           JUNCTION        1.32          0.131        0.639
  WS02006245           JUNCTION        1.32          0.147        0.703
  WS02006247           JUNCTION        1.33          0.181        0.579
  WS02006248           JUNCTION        1.31          0.138        0.242
  WS02006249           JUNCTION        1.33          0.196        0.194
  WS02006252           JUNCTION        1.84          1.100        0.000
  WS02006256           JUNCTION        3.15          2.050        0.000
  YS02001580           JUNCTION        0.32          0.450        0.000
  YS02001583           JUNCTION        0.33          0.389        0.111
  YS02001586           JUNCTION        0.45          0.510        0.000
  YS02001590           JUNCTION        0.52          0.750        0.000
  YS02001593           JUNCTION        0.53          0.705        0.135
  YS02001596           JUNCTION        0.63          0.955        0.115
  YS02001600           JUNCTION        0.83          1.190        0.000
  YS02001601           JUNCTION        6.09          1.440        0.000
  YS02001602           JUNCTION        5.96          1.270        0.000
  YS02001605           JUNCTION        5.91          1.180        0.000
  YS02001607           JUNCTION        0.56          0.680        0.000
  YS02001610           JUNCTION        0.60          0.680        0.000
  YS02001613           JUNCTION        0.56          0.700        0.000
  YS02001616           JUNCTION        0.50          0.610        0.000
  YS02001619           JUNCTION        0.49          0.610        0.000
  YS02001622           JUNCTION        0.49          0.620        0.000
  YS02001625           JUNCTION        0.96          0.780        0.000
  YS02001629           JUNCTION        0.44          0.470        0.000
  YS02001633           JUNCTION        5.90          0.989        0.071
  YS02001641           JUNCTION        5.88          0.955        0.145
  YS02001644           JUNCTION        5.86          0.920        0.000
  YS02001647           JUNCTION        0.68          0.678        0.222
  YS02001649           JUNCTION        5.82          0.848        0.202
  YS02001652           JUNCTION        0.42          0.633        0.497
  YS02001655           JUNCTION        0.16          0.581        0.619
  YS02001658           JUNCTION        0.03          0.459        0.841
  YS02001748           JUNCTION        0.01          0.214        0.976
  YS02001751           JUNCTION        0.06          0.358        0.842
  YS02001754           JUNCTION        0.22          0.472        0.678
  YS02001757           JUNCTION        5.81          0.881        0.329
  YS02001759           JUNCTION        5.80          0.859        0.351
  YS02001762           JUNCTION        5.80          0.826        0.324
  YS02001765           JUNCTION        5.80          0.755        0.345
  YS02001767           JUNCTION        5.80          0.733        0.297
  YS02001770           JUNCTION        5.48          0.848        0.072
  YS02001774           JUNCTION        5.80          1.001        0.049
  YS02001779           JUNCTION        0.21          0.680        0.000
  YS02001783           JUNCTION        0.47          0.747        0.853
  YS02001784           JUNCTION        0.48          0.687        0.803
  YS02001786           JUNCTION        0.47          0.540        0.890
  YS02001788           JUNCTION        0.47          0.423        1.057
  YS02001790           JUNCTION        5.89          0.578        0.579
  YS02001791           JUNCTION        5.89          0.982        0.938
  YS02001793           JUNCTION        5.91          1.105        1.495
  YS02001882           JUNCTION        0.31          0.681        0.149
  YS02001884           JUNCTION        0.31          0.704        0.166
  YS02001887           JUNCTION        0.35          0.772        0.178
  YS02001890           JUNCTION        0.36          0.760        0.000
  YS02001895           JUNCTION        0.30          0.575        0.175
  YS02001898           JUNCTION        0.29          0.555        0.185
  YS02001901           JUNCTION        0.33          0.700        0.170
  YS02001904           JUNCTION        0.33          0.656        0.194
  YS02001907           JUNCTION        0.52          0.950        0.000
  YS02001910           JUNCTION        0.37          0.993        0.107
  YS02001915           JUNCTION        0.31          0.941        0.059
  YS02001918           JUNCTION        0.23          0.810        0.000
  YS02001920           JUNCTION        0.24          1.121        0.019
  YS02001923           JUNCTION        0.01          0.820        0.000
  YS02001926           JUNCTION        0.01          0.900        0.000
  YS02001929           JUNCTION        0.01          0.780        0.000
  YS02006553           JUNCTION        0.52          0.979        0.211
  YS02006556           JUNCTION        0.44          0.923        0.427
  YS02006558           JUNCTION        0.43          0.912        0.488
  YS02006561           JUNCTION        0.27          0.358        0.792
  YS02163301           JUNCTION        5.68          0.914        0.116
  YS02163601           JUNCTION        5.90          1.042        0.038
  YS02164001           JUNCTION        5.88          0.961        0.139
  
  
  *********************
  Node Flooding Summary
  *********************
  
  Flooding refers to all water that overflows a node, whether it ponds or not.
  --------------------------------------------------------------------------
                                                             Total   Maximum
                                 Maximum   Time of Max       Flood    Ponded
                        Hours       Rate    Occurrence      Volume     Depth
  Node                 Flooded       LPS   days hr:min    10^6 ltr    Meters
  --------------------------------------------------------------------------
  WS02006252              0.01    245.63      0  00:00       0.000     0.000
  WS02006256              0.02    293.19      0  00:00       0.005     0.000
  YS02001580              0.01     90.17      0  02:09       0.000     0.000
  YS02001586              0.23    127.12      0  02:15       0.061     0.000
  YS02001590              0.01      8.94      0  02:09       0.000     0.000
  YS02001600              0.01      1.76      0  02:09       0.000     0.000
  YS02001601              0.39    700.78      0  02:14       0.548     0.000
  YS02001602              0.31     62.09      0  02:18       0.059     0.000
  YS02001605              0.01      3.28      0  02:09       0.000     0.000
  YS02001607              0.01      8.24      0  02:09       0.000     0.000
  YS02001610              0.24    267.83      0  02:16       0.148     0.000
  YS02001613              0.01     11.04      0  02:09       0.000     0.000
  YS02001616              0.01     10.66      0  02:09       0.000     0.000
  YS02001619              0.01     12.75      0  02:09       0.000     0.000
  YS02001622              0.01      1.98      0  02:09       0.000     0.000
  YS02001625              0.22    761.96      0  02:15       0.269     0.000
  YS02001629              0.03     38.03      0  02:14       0.002     0.000
  YS02001644              0.01     35.92      0  02:14       0.001     0.000
  YS02001779              0.01    194.90      0  02:12       0.002     0.000
  YS02001890              0.03     78.79      0  02:11       0.005     0.000
  YS02001907              0.18   1110.06      0  02:13       0.329     0.000
  YS02001918              0.01    186.73      0  02:12       0.002     0.000
  YS02001923              0.01    147.12      0  02:12       0.001     0.000
  YS02001926              0.01    119.49      0  02:12       0.001     0.000
  YS02001929              0.01    126.74      0  02:12       0.000     0.000
  JK-storage              5.88    974.16      0  02:13       2.204     0.000
  
  
  **********************
  Storage Volume Summary
  **********************
  
  ------------------------------------------------------------------------------------------------
                         Average    Avg   Evap  Exfil     Maximum    Max    Time of Max    Maximum
                          Volume   Pcnt   Pcnt   Pcnt      Volume   Pcnt     Occurrence    Outflow
  Storage Unit           1000 m³   Full   Loss   Loss     1000 m³   Full    days hr:min        LPS
  ------------------------------------------------------------------------------------------------
  CC-storage               4.494   70.1    0.0    0.0       5.804   90.5       0  07:29    1783.53
  JK-storage               0.228   78.3    0.0    0.0       0.291  100.0       0  02:07    2300.00
  XR-storage               0.032    2.2    0.0    0.0       0.600   41.7       0  00:00     380.00
  
  
  ***********************
  Outfall Loading Summary
  ***********************
  
  -----------------------------------------------------------
                         Flow       Avg       Max       Total
                         Freq      Flow      Flow      Volume
  Outfall Node           Pcnt       LPS       LPS    10^6 ltr
  -----------------------------------------------------------
  CC-1                   1.18    683.00    683.00       0.208
  CC-2                   1.18    683.00    683.00       0.208
  JK-1                   1.10    347.46   1000.00       0.079
  JK-2                   1.10    347.46   1000.00       0.079
  WSC                   99.93    528.58    818.20      14.140
  -----------------------------------------------------------
  System                20.90   2589.51   3366.35      14.715
  
  
  ********************
  Link Flow Summary
  ********************
  
  -----------------------------------------------------------------------------
                                 Maximum  Time of Max   Maximum    Max/    Max/
                                  |Flow|   Occurrence   |Veloc|    Full    Full
  Link                 Type          LPS  days hr:min     m/sec    Flow   Depth
  -----------------------------------------------------------------------------
  1                    CONDUIT    818.20     0  03:21      3.15    0.28    0.37
  WS02001211WS02001212 CONDUIT    390.86     0  03:36      0.78    0.30    0.64
  WS02001212WS02001213 CONDUIT    392.62     0  03:35      1.32    0.61    0.45
  WS02001213WS02003059 CONDUIT    395.66     0  03:35      0.85    0.65    0.75
  WS02003059WS02003060 CONDUIT    399.95     0  03:35      0.95    0.26    0.63
  WS02003060WS02003069 CONDUIT    816.12     0  03:19      1.80    0.32    0.42
  WS02003066WSF200     CONDUIT    411.98     0  03:19      2.69    0.07    0.19
  WS02003067WS02003066 CONDUIT    411.98     0  03:19      1.04    0.13    0.38
  WS02003069WS02003072 CONDUIT    816.41     0  03:20      1.55    0.39    0.47
  WS02003072WS02003073 CONDUIT    816.40     0  03:20      1.64    1.76    0.45
  WS02004138WS02004139 CONDUIT    395.20     0  00:00      3.65    0.08    0.43
  WS02004139WS02001211 CONDUIT    381.78     0  03:36      0.91    0.48    0.59
  WS02004401WS02004402 CONDUIT    412.40     0  03:16      0.99    0.50    0.77
  WS02004402WS02004403 CONDUIT    412.29     0  03:16      0.99    0.59    0.79
  WS02004403WS02004404 CONDUIT    412.27     0  03:16      0.93    0.30    0.84
  WS02004404WS02004405 CONDUIT    412.41     0  03:16      1.10    4.04    0.88
  WS02004405WS02004406 CONDUIT    412.39     0  03:16      1.03    0.81    0.88
  WS02004406WS02004407 CONDUIT    412.27     0  03:17      0.89    0.18    0.57
  WS02004407WS02004409 CONDUIT    412.21     0  03:17      1.36    0.15    0.42
  WS02004409WS02004410 CONDUIT    412.15     0  03:17      0.88    0.53    0.58
  WS02004410WS02004411 CONDUIT    412.09     0  03:17      0.84    0.56    0.60
  WS02004411WS02004412 CONDUIT    412.08     0  03:18      0.81    0.59    0.61
  WS02004412WS02004413 CONDUIT    412.05     0  03:18      0.70    0.28    0.70
  WS02004413WS02003067 CONDUIT    411.98     0  03:18      0.96    0.18    0.54
  WS02006109WS02006110 CONDUIT    411.83     0  03:15      0.84    0.79    0.94
  WS02006110WS02006113 CONDUIT    412.23     0  03:15      1.03    0.38    0.75
  WS02006111WS02006112 CONDUIT    414.48     0  03:15      1.83    0.20    0.65
  WS02006112WS02006115 CONDUIT    413.14     0  03:15      0.70    0.24    0.78
  WS02006113WS02006111 CONDUIT    423.66     0  03:21      2.25    0.51    0.40
  WS02006115WS02006116 CONDUIT    412.64     0  03:15      0.98    0.53    0.66
  WS02006116WS02004401 CONDUIT    412.41     0  03:16      1.00    0.57    0.74
  WS02006228WS02006109 CONDUIT    410.58     0  03:15      1.06    1.79    1.00
  WS02006229WS02006228 CONDUIT    410.58     0  03:16      1.13    1.36    1.00
  WS02006230WS02006229 CONDUIT    410.59     0  03:16      1.22    9.14    1.00
  WS02006231WS02006230 CONDUIT    400.25     0  02:30      1.37    6.07    0.77
  WS02006232WS02006231 CONDUIT    400.35     0  02:24      1.08    0.84    0.92
  WS02006234WS02006232 CONDUIT    400.33     0  02:38      1.40    0.81    1.00
  WS02006235WS02006234 CONDUIT    401.33     0  02:40      1.30    4.23    0.99
  WS02006238WS02006235 CONDUIT    402.03     0  02:21      1.48    0.90    1.00
  WS02006239WS02006238 CONDUIT    401.49     0  02:18      1.21    1.28    1.00
  WS02006240WS02006239 CONDUIT    401.54     0  02:10      1.30    1.26    1.00
  WS02006242WS02006240 CONDUIT    401.07     0  02:25      1.17    1.59    1.00
  WS02006243WS02006242 CONDUIT    400.77     0  02:29      1.43    0.86    1.00
  WS02006245WS02006243 CONDUIT    400.76     0  02:12      1.45    1.19    1.00
  WS02006247WS02006245 CONDUIT    403.42     0  02:09      1.43    3.20    1.00
  WS02006248WS02006247 CONDUIT    401.05     0  02:15      1.45    0.87    1.00
  WS02006249WS02006248 CONDUIT    401.08     0  02:18      1.41    2.20    1.00
  WS02006251WS02006249 CONDUIT    465.52     0  07:46      1.99    1.34    1.00
  WS02006252WS02006251 CONDUIT    403.29     0  07:46     24.55    1.48    1.00
  WS02006256WS02006235 CONDUIT    288.91     0  00:00      4.23    3.06    1.00
  WSF200WS02003060     CONDUIT    411.99     0  03:19      1.43    0.09    0.30
  YS02001580YS02001583 CONDUIT    114.21     0  02:09      0.71    0.44    1.00
  YS02001583YS02001586 CONDUIT    169.54     0  02:09      0.72    0.26    1.00
  YS02001586YS02001590 CONDUIT    318.39     0  02:14      1.27    0.56    1.00
  YS02001590YS02001593 CONDUIT    318.13     0  02:14      1.13    2.00    1.00
  YS02001593YS02001596 CONDUIT    317.97     0  02:14      1.62    0.50    1.00
  YS02001596YS02001600 CONDUIT    318.04     0  02:21      1.12    0.62    1.00
  YS02001600YS02001601 CONDUIT    318.00     0  02:14      1.12    0.55    1.00
  YS02001601YS02001602 CONDUIT    519.08     0  02:08      1.84    1.87    1.00
  YS02001602YS02001605 CONDUIT    519.30     0  02:08      1.84   10.99    1.00
  YS02001605YS02001607 CONDUIT    519.78     0  02:08      1.84    2.85    1.00
  YS02001607YS02001610 CONDUIT    521.02     0  02:08      0.66    0.50    1.00
  YS02001610YS02001613 CONDUIT    520.68     0  02:08      0.66    0.60    1.00
  YS02001613YS02001616 CONDUIT    525.13     0  02:08      0.67    0.45    1.00
  YS02001616YS02001619 CONDUIT    496.60     0  02:08      0.66    0.86    1.00
  YS02001619YS02001622 CONDUIT    933.32     0  02:10      1.20    1.38    1.00
  YS02001622YS02001625 CONDUIT    932.53     0  02:10      1.19    0.50    1.00
  YS02001625YS02001629 CONDUIT    931.82     0  02:10      1.19    0.44    1.00
  YS02001629YS02163301 CONDUIT    931.02     0  02:10      1.19    1.15    1.00
  YS02001633YS02163601 CONDUIT   1387.92     0  02:11      1.77    1.46    1.00
  YS02001641YS02001644 CONDUIT   1387.65     0  02:11      1.77    4.49    1.00
  YS02001644YS02001647 CONDUIT   1804.39     0  02:11      2.30    1.06    1.00
  YS02001647YS02001649 CONDUIT   1797.23     0  02:11      2.37    0.95    1.00
  YS02001649YS02001757 CONDUIT   2039.38     0  02:11      2.60    1.24    1.00
  YS02001652YS02001649 CONDUIT    604.46     0  02:15      0.77    0.30    1.00
  YS02001655YS02001652 CONDUIT    602.87     0  02:15      1.32    0.29    1.00
  YS02001658YS02001655 CONDUIT    604.54     0  02:15      1.92    0.26    1.00
  YS02001661YS02001658 CONDUIT    686.86     0  02:13      2.35    0.27    0.91
  YS02001664YS02001661 CONDUIT    525.17     0  02:13      2.33    0.16    0.58
  YS02001745YS02001748 CONDUIT    562.35     0  02:14      2.19    0.22    0.73
  YS02001748YS02001751 CONDUIT    408.00     0  02:17      1.68    0.21    1.00
  YS02001751YS02001754 CONDUIT    381.68     0  02:14      1.41    0.18    1.00
  YS02001754YS02001757 CONDUIT    383.04     0  02:14      0.49    0.15    1.00
  YS02001757CaochengTiaoxuchi CONDUIT   3166.66     0  02:14      4.03    1.37    1.00
  YS02001759YS02001757 CONDUIT   1145.53     0  02:12      1.46    0.81    1.00
  YS02001762YS02001759 CONDUIT    693.56     0  02:12      0.88    0.80    1.00
  YS02001765YS02001762 CONDUIT    686.15     0  02:12      0.87    0.64    1.00
  YS02001767YS02001765 CONDUIT    677.65     0  02:12      0.86    0.85    1.00
  YS02001770YS02001767 CONDUIT    668.44     0  02:12      0.85    2.65    1.00
  YS02001774YS02001770 CONDUIT    301.61     0  02:12      0.38    0.19    1.00
  YS02001779YS02001774 CONDUIT    277.32     0  02:12      0.36    0.14    1.00
  YS02001783YS02001784 CONDUIT    971.91     0  02:13      1.93    1.34    1.00
  YS02001784YS02001785 CONDUIT    973.35     0  02:13      1.94    2.27    1.00
  YS02001786YS02001788 CONDUIT    972.97     0  02:13      2.08    1.87    1.00
  YS02001788YS02001790 CONDUIT    973.19     0  02:13      2.12    0.72    1.00
  YS02001790YS02001791 CONDUIT    973.17     0  02:13      2.47    1.06    1.00
  YS02001791YS02001793 CONDUIT    974.04     0  02:13      4.74    0.42    1.00
  YS02001793JiankangQianchi CONDUIT    974.18     0  02:13      1.54    0.08    1.00
  YS02001882YS02001884 CONDUIT     53.95     0  02:09      0.10    0.06    1.00
  YS02001884YS02001887 CONDUIT    116.17     0  02:09      0.15    0.15    1.00
  YS02001887YS02001890 CONDUIT    498.06     0  02:13      0.63    0.85    1.00
  YS02001890YS02001895 CONDUIT    485.58     0  02:13      0.62    0.23    1.00
  YS02001895YS02001898 CONDUIT    486.11     0  02:13      0.62    0.84    1.00
  YS02001898YS02001901 CONDUIT    486.43     0  02:13      0.62    0.31    1.00
  YS02001901YS02001904 CONDUIT    486.50     0  02:13      0.62    0.75    1.00
  YS02001904YS02001907 CONDUIT    486.93     0  02:13      0.62    0.17    1.00
  YS02001907YS02006553 CONDUIT    673.43     0  02:24      0.75    0.79    1.00
  YS02001910YS02001907 CONDUIT    979.58     0  02:13      1.25    0.55    1.00
  YS02001915YS02001910 CONDUIT    978.32     0  02:13      1.25    0.49    1.00
  YS02001918YS02001915 CONDUIT    548.92     0  02:11      0.73    0.30    1.00
  YS02001920YS02001918 CONDUIT    459.56     0  02:13      0.64    0.44    1.00
  YS02001923YS02001920 CONDUIT    454.86     0  02:13      0.72    0.20    1.00
  YS02001926YS02001923 CONDUIT    534.76     0  02:11      0.97    0.76    1.00
  YS02001929YS02001926 CONDUIT    421.18     0  02:12      1.15    0.20    1.00
  YS02006553YS02006556 CONDUIT    674.73     0  02:24      0.86    0.58    1.00
  YS02006556YS02006558 CONDUIT    676.12     0  02:24      0.86    0.53    1.00
  YS02006558YS02006561 CONDUIT    972.13     0  02:14      3.44    2.15    1.00
  YS02006561YS02001783 CONDUIT    971.81     0  02:13      2.11    0.50    1.00
  YS02163301YS02001633 CONDUIT    930.83     0  02:10      1.19    0.88    1.00
  YS02163601YS02164001 CONDUIT   1387.59     0  02:11      1.77    1.23    1.00
  YS02164001YS02001641 CONDUIT   1388.25     0  02:11      1.77    1.90    1.00
  CC-R1                PUMP       683.00     0  00:00              1.00
  CC-R2                PUMP       683.00     0  00:00              1.00
  CC-S1                PUMP       200.00     0  00:00              1.00
  CC-S2                PUMP       200.00     0  00:00              1.00
  JK-R1                PUMP      1000.00     0  00:00              1.00
  JK-R2                PUMP      1000.00     0  00:00              1.00
  JK-S                 PUMP       300.00     0  00:00              1.00
  XR-1                 PUMP        95.00     0  00:00              1.00
  XR-2                 PUMP        95.00     0  00:00              1.00
  XR-3                 PUMP        95.00     0  00:00              1.00
  XR-4                 PUMP        95.00     0  00:00              1.00
  
  
  ***************************
  Flow Classification Summary
  ***************************
  
  -------------------------------------------------------------------------------------
                      Adjusted    ---------- Fraction of Time in Flow Class ---------- 
                       /Actual         Up    Down  Sub   Sup   Up    Down  Norm  Inlet 
  Conduit               Length    Dry  Dry   Dry   Crit  Crit  Crit  Crit  Ltd   Ctrl  
  -------------------------------------------------------------------------------------
  1                       1.00   0.00  0.00  0.00  0.00  1.00  0.00  0.00  0.20  0.00
  WS02001211WS02001212    1.00   0.00  0.00  0.00  1.00  0.00  0.00  0.00  0.00  0.00
  WS02001212WS02001213    1.00   0.00  0.00  0.00  0.34  0.00  0.65  0.00  0.00  0.00
  WS02001213WS02003059    1.00   0.00  0.00  0.00  0.99  0.00  0.00  0.00  0.00  0.00
  WS02003059WS02003060    1.00   0.00  0.00  0.00  1.00  0.00  0.00  0.00  0.00  0.00
  WS02003060WS02003069    1.00   0.00  0.00  0.00  0.99  0.01  0.00  0.00  0.00  0.00
  WS02003066WSF200        1.00   0.02  0.10  0.00  0.00  0.88  0.00  0.00  0.86  0.00
  WS02003067WS02003066    1.00   0.10  0.02  0.00  0.89  0.00  0.00  0.00  0.00  0.00
  WS02003069WS02003072    1.00   0.00  0.00  0.00  0.99  0.01  0.00  0.00  0.00  0.00
  WS02003072WS02003073    1.00   0.00  0.00  0.00  0.00  0.00  0.00  1.00  0.00  0.00
  WS02004138WS02004139    1.00   0.00  0.00  0.00  0.99  0.01  0.00  0.00  1.00  0.00
  WS02004139WS02001211    1.00   0.00  0.00  0.00  1.00  0.00  0.00  0.00  0.00  0.00
  WS02004401WS02004402    1.00   0.02  0.00  0.00  0.98  0.00  0.00  0.00  0.00  0.00
  WS02004402WS02004403    1.00   0.02  0.00  0.00  0.98  0.00  0.00  0.00  0.00  0.00
  WS02004403WS02004404    1.00   0.00  0.03  0.00  0.97  0.00  0.00  0.00  0.00  0.00
  WS02004404WS02004405    1.00   0.00  0.00  0.00  1.00  0.00  0.00  0.00  0.00  0.00
  WS02004405WS02004406    1.00   0.00  0.00  0.00  1.00  0.00  0.00  0.00  0.00  0.00
  WS02004406WS02004407    1.00   0.00  0.05  0.00  0.95  0.00  0.00  0.00  0.00  0.00
  WS02004407WS02004409    1.00   0.05  0.00  0.00  0.94  0.01  0.00  0.00  0.94  0.00
  WS02004409WS02004410    1.00   0.05  0.00  0.00  0.95  0.00  0.00  0.00  0.03  0.00
  WS02004410WS02004411    1.00   0.05  0.00  0.00  0.95  0.00  0.00  0.00  0.00  0.00
  WS02004411WS02004412    1.00   0.05  0.00  0.00  0.95  0.00  0.00  0.00  0.00  0.00
  WS02004412WS02004413    1.00   0.05  0.00  0.00  0.94  0.00  0.00  0.00  0.01  0.00
  WS02004413WS02003067    1.00   0.06  0.04  0.00  0.00  0.00  0.90  0.00  0.00  0.00
  WS02006109WS02006110    1.00   0.00  0.01  0.00  0.98  0.00  0.01  0.00  0.00  0.00
  WS02006110WS02006113    1.00   0.01  0.01  0.00  0.98  0.00  0.00  0.00  0.00  0.00
  WS02006111WS02006112    1.00   0.02  0.00  0.00  0.98  0.00  0.00  0.00  0.98  0.00
  WS02006112WS02006115    1.00   0.02  0.00  0.00  0.97  0.00  0.00  0.00  0.00  0.00
  WS02006113WS02006111    1.00   0.02  0.00  0.00  0.00  0.98  0.00  0.00  0.11  0.00
  WS02006115WS02006116    1.00   0.02  0.00  0.00  0.97  0.00  0.00  0.01  0.00  0.00
  WS02006116WS02004401    1.00   0.02  0.00  0.00  0.98  0.00  0.00  0.00  0.00  0.00
  WS02006228WS02006109    1.00   0.00  0.00  0.00  1.00  0.00  0.00  0.00  0.00  0.00
  WS02006229WS02006228    1.00   0.00  0.00  0.00  0.99  0.00  0.00  0.01  0.00  0.00
  WS02006230WS02006229    1.00   0.00  0.00  0.00  0.99  0.00  0.00  0.01  0.00  0.00
  WS02006231WS02006230    1.00   0.00  0.00  0.00  0.18  0.00  0.82  0.00  0.00  0.00
  WS02006232WS02006231    1.00   0.00  0.00  0.00  0.99  0.00  0.01  0.00  0.00  0.00
  WS02006234WS02006232    1.00   0.00  0.00  0.00  1.00  0.00  0.00  0.00  0.51  0.00
  WS02006235WS02006234    1.00   0.00  0.00  0.00  0.45  0.00  0.55  0.00  0.00  0.00
  WS02006238WS02006235    1.00   0.00  0.00  0.00  1.00  0.00  0.00  0.00  0.00  0.00
  WS02006239WS02006238    1.00   0.00  0.00  0.00  1.00  0.00  0.00  0.00  0.60  0.00
  WS02006240WS02006239    1.00   0.00  0.00  0.00  0.36  0.00  0.00  0.64  0.01  0.00
  WS02006242WS02006240    1.00   0.00  0.00  0.00  0.99  0.00  0.01  0.00  0.00  0.00
  WS02006243WS02006242    1.00   0.00  0.00  0.00  0.99  0.00  0.00  0.01  0.69  0.00
  WS02006245WS02006243    1.00   0.00  0.00  0.00  0.41  0.00  0.00  0.59  0.00  0.00
  WS02006247WS02006245    1.00   0.00  0.00  0.00  0.98  0.00  0.00  0.01  0.00  0.00
  WS02006248WS02006247    1.00   0.00  0.00  0.00  0.99  0.00  0.00  0.01  0.14  0.00
  WS02006249WS02006248    1.00   0.00  0.00  0.00  0.30  0.00  0.70  0.00  0.00  0.00
  WS02006251WS02006249    1.00   0.00  0.00  0.00  1.00  0.00  0.00  0.00  0.70  0.00
  WS02006252WS02006251    1.00   0.02  0.72  0.00  0.00  0.00  0.26  0.00  0.00  0.00
  WS02006256WS02006235    1.00   0.00  0.00  0.00  1.00  0.00  0.00  0.00  0.00  0.00
  WSF200WS02003060        1.00   0.00  0.02  0.00  0.98  0.00  0.00  0.00  0.72  0.00
  YS02001580YS02001583    1.00   0.27  0.58  0.00  0.16  0.00  0.00  0.00  0.67  0.00
  YS02001583YS02001586    1.00   0.50  0.29  0.00  0.21  0.00  0.00  0.00  0.67  0.00
  YS02001586YS02001590    1.00   0.13  0.00  0.00  0.37  0.04  0.00  0.46  0.34  0.00
  YS02001590YS02001593    1.00   0.13  0.01  0.00  0.08  0.00  0.78  0.00  0.00  0.00
  YS02001593YS02001596    1.00   0.14  0.00  0.00  0.43  0.05  0.00  0.38  0.39  0.00
  YS02001596YS02001600    1.00   0.14  0.00  0.00  0.77  0.01  0.00  0.08  0.03  0.00
  YS02001600YS02001601    1.00   0.13  0.01  0.00  0.86  0.00  0.00  0.00  0.06  0.00
  YS02001601YS02001602    1.00   0.13  0.01  0.00  0.86  0.00  0.00  0.00  0.00  0.00
  YS02001602YS02001605    1.00   0.14  0.00  0.00  0.86  0.00  0.00  0.00  0.00  0.00
  YS02001605YS02001607    1.00   0.14  0.00  0.00  0.86  0.00  0.00  0.00  0.00  0.00
  YS02001607YS02001610    1.00   0.13  0.01  0.00  0.86  0.00  0.00  0.00  0.02  0.00
  YS02001610YS02001613    1.00   0.13  0.00  0.00  0.87  0.00  0.00  0.00  0.01  0.00
  YS02001613YS02001616    1.00   0.13  0.00  0.00  0.87  0.00  0.00  0.00  0.01  0.00
  YS02001616YS02001619    1.00   0.13  0.00  0.00  0.87  0.00  0.00  0.00  0.00  0.00
  YS02001619YS02001622    1.00   0.13  0.00  0.00  0.87  0.00  0.00  0.00  0.00  0.00
  YS02001622YS02001625    1.00   0.13  0.00  0.00  0.87  0.00  0.00  0.00  0.06  0.00
  YS02001625YS02001629    1.00   0.13  0.06  0.00  0.75  0.00  0.06  0.00  0.00  0.00
  YS02001629YS02163301    1.00   0.16  0.01  0.00  0.82  0.00  0.00  0.00  0.00  0.00
  YS02001633YS02163601    1.00   0.00  0.01  0.00  0.99  0.00  0.00  0.00  0.15  0.00
  YS02001641YS02001644    1.00   0.00  0.01  0.00  0.99  0.00  0.00  0.00  0.00  0.00
  YS02001644YS02001647    1.00   0.00  0.19  0.00  0.81  0.00  0.00  0.00  0.00  0.00
  YS02001647YS02001649    1.00   0.00  0.19  0.00  0.78  0.04  0.00  0.00  0.02  0.00
  YS02001649YS02001757    1.00   0.00  0.00  0.00  0.96  0.04  0.00  0.00  0.20  0.00
  YS02001652YS02001649    1.00   0.00  0.00  0.00  0.96  0.04  0.00  0.00  0.20  0.00
  YS02001655YS02001652    1.00   0.00  0.00  0.00  0.75  0.01  0.00  0.25  0.01  0.00
  YS02001658YS02001655    1.00   0.00  0.15  0.00  0.73  0.12  0.00  0.00  0.07  0.00
  YS02001661YS02001658    1.00   0.15  0.00  0.00  0.73  0.13  0.00  0.00  0.06  0.00
  YS02001664YS02001661    1.00   0.13  0.00  0.00  0.80  0.07  0.00  0.00  0.86  0.00
  YS02001745YS02001748    1.00   0.00  0.00  0.00  0.72  0.00  0.00  0.28  0.13  0.00
  YS02001748YS02001751    1.00   0.00  0.00  0.00  0.89  0.11  0.00  0.00  0.13  0.00
  YS02001751YS02001754    1.00   0.00  0.00  0.00  0.74  0.00  0.00  0.26  0.01  0.00
  YS02001754YS02001757    1.00   0.00  0.00  0.00  1.00  0.00  0.00  0.00  0.25  0.00
  YS02001757CaochengTiaoxuchi    1.00   0.00  0.00  0.00  0.99  0.01  0.00  0.00  0.24  0.00
  YS02001759YS02001757    1.00   0.00  0.00  0.00  1.00  0.00  0.00  0.00  0.08  0.00
  YS02001762YS02001759    1.00   0.00  0.00  0.00  1.00  0.00  0.00  0.00  0.05  0.00
  YS02001765YS02001762    1.00   0.00  0.00  0.00  1.00  0.00  0.00  0.00  0.18  0.00
  YS02001767YS02001765    1.00   0.00  0.00  0.00  1.00  0.00  0.00  0.00  0.00  0.00
  YS02001770YS02001767    1.00   0.00  0.00  0.00  1.00  0.00  0.00  0.00  0.00  0.00
  YS02001774YS02001770    1.00   0.00  0.14  0.00  0.86  0.00  0.00  0.00  0.04  0.00
  YS02001779YS02001774    1.00   0.00  0.00  0.00  1.00  0.00  0.00  0.00  0.20  0.00
  YS02001783YS02001784    1.00   0.00  0.20  0.00  0.80  0.00  0.00  0.00  0.00  0.00
  YS02001784YS02001785    1.00   0.00  0.00  0.00  1.00  0.00  0.00  0.00  0.19  0.00
  YS02001786YS02001788    1.00   0.00  0.00  0.00  0.95  0.05  0.00  0.00  0.00  0.00
  YS02001788YS02001790    1.00   0.00  0.00  0.00  0.94  0.06  0.00  0.00  0.21  0.00
  YS02001790YS02001791    1.00   0.00  0.00  0.00  0.75  0.25  0.00  0.00  0.04  0.00
  YS02001791YS02001793    1.00   0.00  0.00  0.00  0.74  0.26  0.00  0.00  0.00  0.00
  YS02001793JiankangQianchi    1.00   0.00  0.00  0.00  0.94  0.06  0.00  0.00  0.23  0.00
  YS02001882YS02001884    1.00   0.16  0.01  0.00  0.83  0.00  0.00  0.00  0.00  0.00
  YS02001884YS02001887    1.00   0.06  0.05  0.00  0.89  0.00  0.00  0.00  0.00  0.00
  YS02001887YS02001890    1.00   0.00  0.00  0.00  0.97  0.00  0.03  0.00  0.00  0.00
  YS02001890YS02001895    1.00   0.00  0.18  0.00  0.82  0.00  0.00  0.00  0.00  0.00
  YS02001895YS02001898    1.00   0.18  0.00  0.00  0.80  0.00  0.02  0.00  0.00  0.00
  YS02001898YS02001901    1.00   0.18  0.00  0.00  0.82  0.00  0.00  0.00  0.01  0.00
  YS02001901YS02001904    1.00   0.18  0.00  0.00  0.82  0.00  0.00  0.00  0.00  0.00
  YS02001904YS02001907    1.00   0.00  0.17  0.00  0.82  0.00  0.00  0.00  0.00  0.00
  YS02001907YS02006553    1.00   0.00  0.02  0.00  0.98  0.00  0.00  0.00  0.00  0.00
  YS02001910YS02001907    1.00   0.00  0.00  0.00  0.97  0.00  0.00  0.03  0.12  0.00
  YS02001915YS02001910    1.00   0.00  0.00  0.00  0.96  0.04  0.00  0.00  0.18  0.00
  YS02001918YS02001915    1.00   0.00  0.01  0.00  0.98  0.02  0.00  0.00  0.79  0.00
  YS02001920YS02001918    1.00   0.00  0.01  0.00  0.99  0.00  0.00  0.00  0.00  0.00
  YS02001923YS02001920    1.00   0.00  0.00  0.00  1.00  0.00  0.00  0.00  0.95  0.00
  YS02001926YS02001923    1.00   0.00  0.07  0.00  0.04  0.00  0.89  0.00  0.00  0.00
  YS02001929YS02001926    1.00   0.00  0.13  0.00  0.87  0.00  0.00  0.00  0.84  0.00
  YS02006553YS02006556    1.00   0.01  0.00  0.00  0.99  0.00  0.00  0.00  0.03  0.00
  YS02006556YS02006558    1.00   0.00  0.00  0.00  1.00  0.00  0.00  0.00  0.00  0.00
  YS02006558YS02006561    1.00   0.20  0.00  0.00  0.05  0.75  0.00  0.00  0.17  0.00
  YS02006561YS02001783    1.00   0.20  0.00  0.00  0.74  0.07  0.00  0.00  0.72  0.00
  YS02163301YS02001633    1.00   0.00  0.16  0.00  0.84  0.00  0.00  0.00  0.00  0.00
  YS02163601YS02164001    1.00   0.00  0.08  0.00  0.92  0.00  0.00  0.00  0.00  0.00
  YS02164001YS02001641    1.00   0.01  0.07  0.00  0.92  0.00  0.00  0.00  0.06  0.00
  
  
  *************************
  Conduit Surcharge Summary
  *************************
  
  ----------------------------------------------------------------------------
                                                           Hours        Hours 
                         --------- Hours Full --------   Above Full   Capacity
  Conduit                Both Ends  Upstream  Dnstream   Normal Flow   Limited
  ----------------------------------------------------------------------------
  WS02003072WS02003073        0.01      0.01      0.01      2.14         0.01
  WS02004404WS02004405        0.01      0.01      0.01      2.06         0.01
  WS02006109WS02006110        0.01      0.01      1.35      0.01         0.01
  WS02006110WS02006113        0.01      0.01      1.32      0.01         0.01
  WS02006111WS02006112        0.01      0.01      1.42      0.01         0.01
  WS02006228WS02006109        1.29      1.34      1.29      1.74         1.29
  WS02006229WS02006228        1.28      1.29      1.28      1.52         1.28
  WS02006230WS02006229        1.42      1.48      1.42      2.52         1.42
  WS02006231WS02006230        0.01      0.01      0.01      2.28         0.01
  WS02006232WS02006231        0.01      0.01      1.35      0.01         0.01
  WS02006234WS02006232        1.25      1.25      1.35      0.01         0.01
  WS02006235WS02006234        0.01      0.01      1.29      2.15         0.01
  WS02006238WS02006235        1.30      1.30      1.36      0.01         0.01
  WS02006239WS02006238        1.32      1.35      1.32      1.60         1.32
  WS02006240WS02006239        1.30      1.31      1.30      1.62         1.30
  WS02006242WS02006240        1.30      1.30      1.44      1.74         0.01
  WS02006243WS02006242        1.32      1.32      1.39      0.01         0.01
  WS02006245WS02006243        1.32      1.32      1.32      1.71         1.31
  WS02006247WS02006245        1.32      1.34      1.32      2.03         1.32
  WS02006248WS02006247        1.32      1.32      1.33      0.01         0.01
  WS02006249WS02006248        1.31      1.31      1.33      2.01         0.01
  WS02006251WS02006249        1.33      1.33      1.33      1.80         1.33
  WS02006252WS02006251        1.84      1.84      1.84      1.84         0.01
  WS02006256WS02006235        2.21      2.21      3.15      0.02         0.01
  YS02001580YS02001583        0.32      0.32      0.36      0.01         0.01
  YS02001583YS02001586        0.33      0.33      0.45      0.01         0.01
  YS02001586YS02001590        0.46      0.46      0.52      0.01         0.01
  YS02001590YS02001593        0.53      0.53      0.54      0.53         0.01
  YS02001593YS02001596        0.53      0.53      0.63      0.01         0.01
  YS02001596YS02001600        0.68      0.68      0.83      0.01         0.01
  YS02001600YS02001601        0.95      0.95      6.09      0.01         0.01
  YS02001601YS02001602        5.96      5.96      6.11      0.72         0.01
  YS02001602YS02001605        5.91      5.91      5.96      1.85         0.01
  YS02001605YS02001607        5.88      5.91      5.99      0.96         0.85
  YS02001607YS02001610        0.56      0.56      0.60      0.01         0.01
  YS02001610YS02001613        0.56      0.56      0.60      0.01         0.01
  YS02001613YS02001616        0.50      0.50      0.56      0.01         0.01
  YS02001616YS02001619        0.49      0.49      0.50      0.01         0.01
  YS02001619YS02001622        0.49      0.49      0.49      0.47         0.39
  YS02001622YS02001625        0.49      0.49      0.96      0.01         0.01
  YS02001625YS02001629        0.44      0.44      0.96      0.01         0.01
  YS02001629YS02163301        5.14      5.14      5.68      0.05         0.10
  YS02001633YS02163601        5.90      5.90      5.90      0.28         0.27
  YS02001641YS02001644        5.86      5.88      5.86      1.05         0.81
  YS02001644YS02001647        0.68      0.68      5.86      0.04         0.01
  YS02001647YS02001649        0.68      0.68      5.82      0.01         0.01
  YS02001649YS02001757        5.81      5.82      5.81      0.19         0.15
  YS02001652YS02001649        0.68      0.68      5.82      0.01         0.01
  YS02001655YS02001652        0.16      0.16      0.42      0.01         0.01
  YS02001658YS02001655        0.03      0.03      0.16      0.01         0.01
  YS02001661YS02001658        0.01      0.01      0.03      0.01         0.01
  YS02001745YS02001748        0.01      0.01      0.01      0.01         0.01
  YS02001748YS02001751        0.01      0.01      0.06      0.01         0.01
  YS02001751YS02001754        0.06      0.06      0.22      0.01         0.01
  YS02001754YS02001757        0.32      0.32      5.81      0.01         0.01
  YS02001757CaochengTiaoxuchi        5.79      5.81      5.79      0.20         0.15
  YS02001759YS02001757        5.80      5.80      5.81      0.01         0.01
  YS02001762YS02001759        5.80      5.80      5.80      0.01         0.01
  YS02001765YS02001762        5.80      5.80      5.80      0.01         0.01
  YS02001767YS02001765        5.80      5.80      5.80      0.01         0.01
  YS02001770YS02001767        5.80      5.80      5.80      0.30         0.25
  YS02001774YS02001770        5.48      5.48      5.80      0.01         0.01
  YS02001779YS02001774        0.20      0.20      5.80      0.01         0.01
  YS02001783YS02001784        0.47      0.47      0.48      0.39         0.40
  YS02001784YS02001785        0.47      0.48      0.47      0.61         0.47
  YS02001786YS02001788        0.47      0.47      0.47      0.53         0.47
  YS02001788YS02001790        0.47      0.47      5.89      0.01         0.01
  YS02001790YS02001791        5.89      5.89      5.89      0.21         0.21
  YS02001791YS02001793        5.89      5.89      5.92      0.01         0.01
  YS02001793JiankangQianchi        5.91      5.91      6.16      0.01         0.01
  YS02001882YS02001884        0.31      0.31      0.32      0.01         0.01
  YS02001884YS02001887        0.34      0.34      0.35      0.01         0.01
  YS02001887YS02001890        0.36      0.36      0.37      0.01         0.01
  YS02001890YS02001895        0.30      0.30      0.38      0.01         0.01
  YS02001895YS02001898        0.29      0.29      0.30      0.01         0.01
  YS02001898YS02001901        0.30      0.30      0.33      0.01         0.01
  YS02001901YS02001904        0.33      0.33      0.33      0.01         0.01
  YS02001904YS02001907        0.33      0.33      0.53      0.01         0.01
  YS02001907YS02006553        0.62      0.62      0.66      0.01         0.01
  YS02001910YS02001907        0.37      0.37      0.52      0.01         0.01
  YS02001915YS02001910        0.31      0.31      0.37      0.01         0.01
  YS02001918YS02001915        0.23      0.23      0.31      0.01         0.01
  YS02001920YS02001918        0.23      0.23      0.24      0.01         0.01
  YS02001923YS02001920        0.17      0.17      0.24      0.01         0.01
  YS02001926YS02001923        0.01      0.01      0.01      0.01         0.01
  YS02001929YS02001926        0.01      0.01      0.01      0.01         0.01
  YS02006553YS02006556        0.44      0.44      0.52      0.01         0.01
  YS02006556YS02006558        0.48      0.48      0.53      0.01         0.01
  YS02006558YS02006561        0.33      0.43      0.33      0.58         0.33
  YS02006561YS02001783        0.27      0.27      0.47      0.01         0.01
  YS02163301YS02001633        5.68      5.68      5.90      0.01         0.01
  YS02163601YS02164001        5.88      5.88      5.90      0.07         0.01
  YS02164001YS02001641        5.88      5.88      5.88      0.51         0.47
  
  
  ***************
  Pumping Summary
  ***************
  
  ---------------------------------------------------------------------------------------------------------
                                                  Min       Avg       Max     Total     Power    % Time Off
                        Percent   Number of      Flow      Flow      Flow    Volume     Usage    Pump Curve
  Pump                 Utilized   Start-Ups       LPS       LPS       LPS  10^6 ltr     Kw-hr    Low   High
  ---------------------------------------------------------------------------------------------------------
  CC-R1                    1.06           1      0.00    683.00    683.00     0.208      3.51    0.0  100.0
  CC-R2                    1.06           1      0.00    683.00    683.00     0.208      3.51    0.0  100.0
  CC-S1                   25.92           5      0.00    200.00    200.00     1.493      7.20    0.0   43.5
  CC-S2                   23.00           4      0.00    200.00    200.00     1.325      6.71    0.0   36.8
  JK-R1                    0.97           2      0.00    347.46   1000.00     0.078      0.47    0.0    0.0
  JK-R2                    0.97           2      0.00    347.46   1000.00     0.078      0.47    0.0    0.0
  JK-S                     0.97           2      0.00    104.30    300.00     0.023      0.44    0.0    0.0
  XR-1                   100.00           1      0.00     95.00     95.00     2.736     68.18    0.0    0.0
  XR-2                   100.00           1      0.00     95.00     95.00     2.736     68.18    0.0    0.0
  XR-3                   100.00           1      0.00     95.00     95.00     2.736     68.18    0.0    0.0
  XR-4                   100.00           1      0.00     95.00     95.00     2.736     68.18    0.0    0.0
  

  Analysis begun on:  Wed Nov  5 16:28:34 2025
  Analysis ended on:  Wed Nov  5 16:28:36 2025
  Total elapsed time: 00:00:02