
  EPA STORM WATER MANAGEMENT MODEL - VERSION 5.2 (Build 5.2.4)
  PYSWMM TOOLKIT API - VERSION v1.0 (2023-11-27)
  ------------------------------------------------------------

  WARNING 04: minimum elevation drop used for Conduit WS02004404WS02004405
  WARNING 03: negative offset ignored for Link YS02001904YS02001907
  
  ****************
  Analysis Options
  ****************
  Flow Units ............... LPS
  Process Models:
    Rainfall/Runoff ........ YES
    RDII ................... NO
    Snowmelt ............... NO
    Groundwater ............ NO
    Flow Routing ........... YES
    Ponding Allowed ........ NO
    Water Quality .......... NO
  Infiltration Method ...... HORTON
  Flow Routing Method ...... DYNWAVE
  Surcharge Method ......... EXTRAN
  Starting Date ............ 08/28/2015 08:00:00
  Ending Date .............. 08/28/2015 16:00:00
  Antecedent Dry Days ...... 8.0
  Report Time Step ......... 00:01:00
  Wet Time Step ............ 00:01:00
  Dry Time Step ............ 00:01:00
  Routing Time Step ........ 30.00 sec
  Variable Time Step ....... YES
  Maximum Trials ........... 8
  Number of Threads ........ 4
  Head Tolerance ........... 0.001500 m
  
  
  **************************        Volume         Depth
  Runoff Quantity Continuity     hectare-m            mm
  **************************     ---------       -------
  Initial LID Storage ......         0.049         1.488
  Total Precipitation ......         1.045        31.494
  Evaporation Loss .........         0.000         0.000
  Infiltration Loss ........         0.068         2.046
  Surface Runoff ...........         0.731        22.047
  Final Storage ............         0.295         8.906
  Continuity Error (%) .....        -0.051
  
  
  **************************        Volume        Volume
  Flow Routing Continuity        hectare-m      10^6 ltr
  **************************     ---------     ---------
  Dry Weather Inflow .......         0.602         6.020
  Wet Weather Inflow .......         0.731         7.310
  Groundwater Inflow .......         0.000         0.000
  RDII Inflow ..............         0.000         0.000
  External Inflow ..........         0.105         1.045
  External Outflow .........         1.498        14.983
  Flooding Loss ............         0.166         1.657
  Evaporation Loss .........         0.000         0.000
  Exfiltration Loss ........         0.000         0.000
  Initial Stored Volume ....         0.303         3.031
  Final Stored Volume ......         0.539         5.395
  Continuity Error (%) .....       -26.590
  
  
  *************************
  Highest Continuity Errors
  *************************
  Node YS02001774 (12.21%)
  Node YS02001583 (-6.88%)
  Node WS02006256 (-6.23%)
  Node YS02001884 (4.70%)
  Node YS02001767 (2.00%)
  
  
  ***************************
  Time-Step Critical Elements
  ***************************
  Link WS02006238WS02006235 (32.41%)
  Link WS02001212WS02001213 (24.27%)
  Link WS02006235WS02006234 (14.56%)
  Link WS02006252WS02006251 (9.93%)
  Link WS02003066WSF200 (5.58%)
  
  
  ********************************
  Highest Flow Instability Indexes
  ********************************
  Link WS02006113WS02006111 (39)
  Link WS02006111WS02006112 (19)
  Link WS02006256WS02006235 (18)
  Link WS02006110WS02006113 (13)
  Link YS02001754YS02001757 (9)
  
  
  *********************************
  Most Frequent Nonconverging Nodes
  *********************************
  Node CC-1 (3.98%)
  Node CC-2 (3.98%)
  Node JK-1 (3.98%)
  Node JK-2 (3.98%)
  Node WSC (3.98%)
  
  
  *************************
  Routing Time Step Summary
  *************************
  Minimum Time Step           :     0.00 sec
  Average Time Step           :     3.20 sec
  Maximum Time Step           :     6.46 sec
  % of Time in Steady State   :     0.00
  Average Iterations per Step :     2.51
  % of Steps Not Converging   :     3.98
  Time Step Frequencies       :
     30.000 - 13.228 sec      :     0.00 %
     13.228 -  5.833 sec      :    24.71 %
      5.833 -  2.572 sec      :    33.60 %
      2.572 -  1.134 sec      :    25.93 %
      1.134 -  0.500 sec      :    15.75 %
  
  
  ***************************
  Subcatchment Runoff Summary
  ***************************
  
  ------------------------------------------------------------------------------------------------------------------------------
                            Total      Total      Total      Total     Imperv       Perv      Total       Total     Peak  Runoff
                           Precip      Runon       Evap      Infil     Runoff     Runoff     Runoff      Runoff   Runoff   Coeff
  Subcatchment                 mm         mm         mm         mm         mm         mm         mm    10^6 ltr      LPS
  ------------------------------------------------------------------------------------------------------------------------------
  sub60                     31.49       0.00       0.00       1.24      20.46       1.67      22.14        0.29   200.51   0.703
  sub61                     31.49       0.00       0.00       1.90      20.44       2.47      22.92        0.42   287.34   0.728
  sub62                     31.49       0.00       0.00       0.84      21.79       1.14      22.92        0.63   393.48   0.728
  sub63                     31.49       0.00       0.00       3.48      17.51       4.00      21.51        0.49   308.20   0.683
  sub64                     31.49       0.00       0.00       1.67      19.93       2.01      21.94        0.53   310.19   0.697
  sub65                     31.49       0.00       0.00       1.53      21.50       1.83      23.33        0.64   359.24   0.741
  sub66                     31.49       0.00       0.00       3.99      16.90       3.25      20.16        0.94   436.77   0.640
  sub67                     31.49       0.00       0.00       0.84      22.35       1.19      23.53        0.44   317.63   0.747
  sub68                     31.49       0.00       0.00       1.46      19.73       1.90      21.63        0.60   390.82   0.687
  sub69                     31.49       0.00       0.00       1.29      21.14       2.46      23.60        0.87   474.87   0.749
  sub70                     31.49       0.00       0.00       4.25      16.91       4.51      21.43        0.62   255.76   0.680
  sub71                     31.49       0.00       0.00       0.78      19.78       1.02      20.81        0.54   320.10   0.661
  sub72                     31.49       0.00       0.00       0.74      21.35       0.94      22.30        0.31   160.33   0.708
  

  ***********************
  LID Performance Summary
  ***********************

  --------------------------------------------------------------------------------------------------------------------
                                         Total      Evap     Infil   Surface    Drain    Initial     Final  Continuity
                                        Inflow      Loss      Loss   Outflow   Outflow   Storage   Storage       Error
  Subcatchment      LID Control             mm        mm        mm        mm        mm        mm        mm           %
  --------------------------------------------------------------------------------------------------------------------
  sub60             GreenRoof            31.49      0.00      0.00      0.00      0.00      7.05     38.60       -0.14
  sub61             GreenRoof            31.49      0.00      0.00      0.00      0.00      7.05     38.60       -0.14
  sub62             GreenRoof            31.49      0.00      0.00      0.00      0.00      7.05     38.60       -0.14
  sub63             GreenRoof            31.49      0.00      0.00      0.00      0.00      7.05     38.60       -0.14
  sub64             GreenRoof            31.49      0.00      0.00      0.00      0.00      7.05     38.60       -0.14
  sub65             GreenRoof            31.49      0.00      0.00      0.00      0.00      7.05     38.60       -0.14
  sub66             GreenRoof            31.49      0.00      0.00      0.00      0.00      7.05     38.60       -0.14
  sub67             GreenRoof            31.49      0.00      0.00      0.00      0.00      7.05     38.60       -0.14
  sub68             GreenRoof            31.49      0.00      0.00      0.00      0.00      7.05     38.60       -0.14
  sub69             GreenRoof            31.49      0.00      0.00      0.00      0.00      7.05     38.60       -0.14
  sub70             GreenRoof            31.49      0.00      0.00      0.00      0.00      7.05     38.60       -0.14
  sub71             GreenRoof            31.49      0.00      0.00      0.00      0.00      7.05     38.60       -0.14
  sub72             GreenRoof            31.49      0.00      0.00      0.00      0.00      7.05     38.60       -0.14
  
  ******************
  Node Depth Summary
  ******************
  
  ---------------------------------------------------------------------------------
                                 Average  Maximum  Maximum  Time of Max    Reported
                                   Depth    Depth      HGL   Occurrence   Max Depth
  Node                 Type       Meters   Meters   Meters  days hr:min      Meters
  ---------------------------------------------------------------------------------
  WS02001211           JUNCTION     0.76     0.78     5.62     0  03:21        0.78
  WS02001212           JUNCTION     0.46     0.49     5.55     0  03:20        0.49
  WS02001213           JUNCTION     0.68     0.73     5.49     0  03:20        0.73
  WS02003059           JUNCTION     0.72     0.78     5.47     0  03:20        0.78
  WS02003060           JUNCTION     0.37     0.47     5.41     0  03:19        0.47
  WS02003066           JUNCTION     0.15     0.27     5.82     0  03:19        0.27
  WS02003067           JUNCTION     0.42     0.65     5.97     0  03:18        0.65
  WS02003069           JUNCTION     0.41     0.54     5.12     0  03:20        0.54
  WS02003072           JUNCTION     0.48     0.60     4.97     0  03:20        0.60
  WS02003073           JUNCTION     0.29     0.37     4.43     0  03:18        0.37
  WS02004138           JUNCTION     0.19     0.20     7.45     0  00:00        0.19
  WS02004139           JUNCTION     0.71     0.73     5.64     0  03:22        0.73
  WS02004401           JUNCTION     0.50     0.75     6.75     0  02:36        0.75
  WS02004402           JUNCTION     0.53     0.78     6.74     0  02:36        0.78
  WS02004403           JUNCTION     0.55     0.80     6.73     0  02:37        0.80
  WS02004404           JUNCTION     0.63     0.88     6.73     0  02:58        0.88
  WS02004405           JUNCTION     0.63     0.87     6.72     0  02:58        0.87
  WS02004406           JUNCTION     0.64     0.88     6.71     0  02:37        0.88
  WS02004407           JUNCTION     0.13     0.26     6.57     0  02:37        0.26
  WS02004409           JUNCTION     0.29     0.57     6.34     0  03:17        0.57
  WS02004410           JUNCTION     0.31     0.59     6.31     0  03:17        0.59
  WS02004411           JUNCTION     0.34     0.61     6.29     0  03:17        0.61
  WS02004412           JUNCTION     0.36     0.62     6.26     0  03:18        0.62
  WS02004413           JUNCTION     0.52     0.79     6.26     0  03:18        0.79
  WS02006109           JUNCTION     0.55     0.83     7.45     0  02:35        0.83
  WS02006110           JUNCTION     0.57     0.82     7.41     0  02:35        0.82
  WS02006111           JUNCTION     0.14     0.25     6.96     0  03:21        0.25
  WS02006112           JUNCTION     0.64     0.93     6.82     0  03:22        0.93
  WS02006113           JUNCTION     0.21     0.39     7.29     0  03:21        0.39
  WS02006115           JUNCTION     0.38     0.64     6.78     0  02:36        0.64
  WS02006116           JUNCTION     0.46     0.73     6.77     0  02:36        0.73
  WS02006228           JUNCTION     0.54     0.84     7.49     0  02:35        0.84
  WS02006229           JUNCTION     0.51     0.82     7.52     0  02:35        0.82
  WS02006230           JUNCTION     0.49     0.86     7.60     0  02:36        0.86
  WS02006231           JUNCTION     0.30     0.60     7.72     0  02:36        0.60
  WS02006232           JUNCTION     0.42     0.75     7.79     0  02:36        0.75
  WS02006234           JUNCTION     0.33     0.71     7.87     0  02:37        0.71
  WS02006235           JUNCTION     0.37     0.75     7.92     0  02:23        0.75
  WS02006238           JUNCTION     0.39     0.79     7.93     0  02:23        0.79
  WS02006239           JUNCTION     0.37     0.80     8.01     0  02:23        0.80
  WS02006240           JUNCTION     0.35     0.78     8.08     0  02:37        0.78
  WS02006242           JUNCTION     0.41     0.89     8.16     0  02:24        0.89
  WS02006243           JUNCTION     0.34     0.83     8.25     0  02:37        0.83
  WS02006245           JUNCTION     0.34     0.84     8.33     0  02:24        0.84
  WS02006247           JUNCTION     0.36     0.88     8.38     0  02:24        0.88
  WS02006248           JUNCTION     0.33     0.85     8.44     0  02:24        0.85
  WS02006249           JUNCTION     0.36     0.88     8.48     0  02:19        0.88
  WS02006251           JUNCTION     0.35     0.91     8.58     0  02:37        0.91
  WS02006252           JUNCTION     0.27     1.50     9.74     0  00:00        0.59
  WS02006256           JUNCTION     0.60     2.35     9.28     0  00:00        2.35
  WSF200               JUNCTION     0.12     0.25     5.48     0  02:55        0.25
  YS02001580           JUNCTION     0.04     1.05     9.59     0  02:02        0.76
  YS02001583           JUNCTION     0.07     0.99     9.49     0  02:02        0.81
  YS02001586           JUNCTION     0.12     1.13     9.30     0  02:02        1.13
  YS02001590           JUNCTION     0.20     1.40     9.26     0  02:00        1.36
  YS02001593           JUNCTION     0.14     1.46     9.32     0  02:02        1.46
  YS02001596           JUNCTION     0.20     1.80     9.22     0  02:02        1.80
  YS02001600           JUNCTION     0.25     1.87     9.00     0  02:02        1.87
  YS02001601           JUNCTION     0.44     2.06     8.90     0  02:00        2.06
  YS02001602           JUNCTION     0.35     1.87     8.77     0  02:02        1.87
  YS02001605           JUNCTION     0.32     1.77     8.68     0  02:02        1.68
  YS02001607           JUNCTION     0.32     1.64     8.48     0  02:02        1.36
  YS02001610           JUNCTION     0.36     1.68     8.48     0  02:02        1.41
  YS02001613           JUNCTION     0.32     1.66     8.50     0  02:02        1.36
  YS02001616           JUNCTION     0.25     1.60     8.51     0  02:02        1.28
  YS02001619           JUNCTION     0.23     1.57     8.50     0  02:02        1.26
  YS02001622           JUNCTION     0.23     1.54     8.44     0  02:02        1.24
  YS02001625           JUNCTION     0.49     1.78     8.38     0  02:02        1.47
  YS02001629           JUNCTION     0.49     1.85     8.40     0  02:02        1.47
  YS02001633           JUNCTION     0.57     1.80     8.25     0  02:02        1.48
  YS02001641           JUNCTION     0.55     1.40     7.83     0  02:02        1.25
  YS02001644           JUNCTION     0.55     1.22     7.65     0  02:02        1.17
  YS02001647           JUNCTION     0.36     0.82     7.43     0  02:04        0.80
  YS02001649           JUNCTION     0.53     0.95     7.34     0  02:04        0.91
  YS02001652           JUNCTION     0.36     0.74     7.34     0  02:04        0.71
  YS02001655           JUNCTION     0.15     0.48     7.33     0  02:03        0.47
  YS02001658           JUNCTION     0.05     0.25     7.39     0  02:03        0.24
  YS02001661           JUNCTION     0.11     0.31     7.71     0  02:02        0.30
  YS02001664           JUNCTION     0.04     0.21     8.13     0  02:02        0.21
  YS02001745           JUNCTION     0.03     0.19     7.70     0  02:02        0.19
  YS02001748           JUNCTION     0.04     0.21     7.29     0  02:02        0.21
  YS02001751           JUNCTION     0.12     0.33     7.20     0  02:07        0.29
  YS02001754           JUNCTION     0.34     0.65     7.26     0  02:06        0.63
  YS02001757           JUNCTION     0.63     0.95     7.21     0  02:07        0.94
  YS02001759           JUNCTION     0.54     0.86     7.23     0  02:06        0.82
  YS02001762           JUNCTION     0.51     0.82     7.22     0  02:06        0.79
  YS02001765           JUNCTION     0.47     0.78     7.23     0  02:06        0.77
  YS02001767           JUNCTION     0.44     0.73     7.22     0  02:06        0.73
  YS02001770           JUNCTION     0.44     0.75     7.25     0  02:05        0.73
  YS02001774           JUNCTION     0.51     0.82     7.24     0  02:05        0.82
  YS02001779           JUNCTION     0.27     0.56     7.25     0  02:06        0.56
  YS02001783           JUNCTION     0.45     1.31     7.45     0  02:05        1.23
  YS02001784           JUNCTION     0.50     1.44     7.50     0  02:05        1.19
  YS02001786           JUNCTION     0.51     1.49     7.52     0  02:05        1.09
  YS02001788           JUNCTION     0.54     1.70     7.67     0  02:05        1.00
  YS02001790           JUNCTION     0.79     1.96     7.60     0  02:04        1.21
  YS02001791           JUNCTION     0.91     1.52     6.99     0  02:04        1.23
  YS02001793           JUNCTION     1.39     1.93     6.76     0  02:05        1.79
  YS02001882           JUNCTION     0.22     1.63     8.35     0  02:06        1.49
  YS02001884           JUNCTION     0.31     1.69     8.31     0  02:06        1.54
  YS02001887           JUNCTION     0.38     1.67     8.21     0  02:06        1.40
  YS02001890           JUNCTION     0.41     1.58     8.08     0  02:06        1.35
  YS02001895           JUNCTION     0.19     1.28     8.02     0  02:06        1.11
  YS02001898           JUNCTION     0.20     1.26     7.99     0  02:06        1.12
  YS02001901           JUNCTION     0.31     1.34     7.95     0  02:06        1.24
  YS02001904           JUNCTION     0.29     1.28     7.91     0  02:06        1.22
  YS02001907           JUNCTION     0.60     1.59     7.87     0  02:06        1.56
  YS02001910           JUNCTION     0.40     1.36     7.87     0  02:08        1.34
  YS02001915           JUNCTION     0.22     1.16     7.88     0  02:08        1.14
  YS02001918           JUNCTION     0.10     0.82     7.89     0  02:08        0.78
  YS02001920           JUNCTION     0.17     0.88     7.89     0  02:08        0.87
  YS02001923           JUNCTION     0.06     0.62     7.88     0  02:08        0.62
  YS02001926           JUNCTION     0.10     0.45     7.90     0  02:07        0.43
  YS02001929           JUNCTION     0.04     0.19     7.88     0  02:04        0.19
  YS02006553           JUNCTION     0.61     1.57     7.86     0  02:06        1.55
  YS02006556           JUNCTION     0.58     1.53     7.84     0  02:07        1.51
  YS02006558           JUNCTION     0.62     1.56     7.83     0  02:07        1.54
  YS02006561           JUNCTION     0.11     0.82     7.48     0  02:07        0.81
  YS02163301           JUNCTION     0.51     1.85     8.37     0  02:02        1.47
  YS02163601           JUNCTION     0.61     1.67     8.07     0  02:02        1.41
  YS02164001           JUNCTION     0.54     1.49     7.95     0  02:02        1.28
  CC-1                 OUTFALL      0.00     0.00     0.00     0  00:00        0.00
  CC-2                 OUTFALL      0.00     0.00     0.00     0  00:00        0.00
  JK-1                 OUTFALL      0.00     0.00     0.00     0  00:00        0.00
  JK-2                 OUTFALL      0.00     0.00     0.00     0  00:00        0.00
  WSC                  OUTFALL      0.29     0.37     1.04     0  03:18        0.37
  CC-storage           STORAGE      1.28     1.62     7.12     0  02:49        1.62
  JK-storage           STORAGE      4.65     5.80     6.60     0  02:04        5.80
  XR-storage           STORAGE      0.26     5.00     3.00     0  00:00        4.91
  
  
  *******************
  Node Inflow Summary
  *******************
  
  -------------------------------------------------------------------------------------------------
                                  Maximum  Maximum                  Lateral       Total        Flow
                                  Lateral    Total  Time of Max      Inflow      Inflow     Balance
                                   Inflow   Inflow   Occurrence      Volume      Volume       Error
  Node                 Type           LPS      LPS  days hr:min    10^6 ltr    10^6 ltr     Percent
  -------------------------------------------------------------------------------------------------
  WS02001211           JUNCTION      7.35   389.14     0  03:34       0.212        11.1       0.357
  WS02001212           JUNCTION      0.00   390.85     0  03:36           0        11.1       0.217
  WS02001213           JUNCTION      0.00   392.61     0  03:35           0          11       0.255
  WS02003059           JUNCTION      0.00   395.66     0  03:35           0          11       0.352
  WS02003060           JUNCTION     16.53   816.00     0  03:19       0.476        14.5       0.207
  WS02003066           JUNCTION      0.00   411.81     0  03:18           0        3.04       0.130
  WS02003067           JUNCTION      0.00   411.81     0  03:18           0        3.05       0.273
  WS02003069           JUNCTION      0.32   816.32     0  03:19     0.00922        14.5       0.224
  WS02003072           JUNCTION      0.00   816.31     0  03:20           0        14.4       0.273
  WS02003073           JUNCTION      1.82   818.13     0  03:20      0.0524        14.5       0.311
  WS02004138           JUNCTION      0.00   380.00     0  00:00           0        10.9       0.059
  WS02004139           JUNCTION      0.32   395.52     0  00:00     0.00924        10.9       0.415
  WS02004401           JUNCTION      0.00   411.95     0  02:36           0        3.24       0.526
  WS02004402           JUNCTION      0.00   411.91     0  02:36           0        3.23       0.510
  WS02004403           JUNCTION      0.00   411.88     0  02:36           0        3.21       0.478
  WS02004404           JUNCTION      0.16   412.02     0  02:37     0.00467         3.2       0.372
  WS02004405           JUNCTION      0.04   412.05     0  02:37      0.0011        3.19       0.558
  WS02004406           JUNCTION      0.00   412.10     0  02:37           0        3.17       0.925
  WS02004407           JUNCTION      0.00   411.93     0  02:37           0        3.14       0.166
  WS02004409           JUNCTION      0.00   411.88     0  02:37           0        3.14       0.400
  WS02004410           JUNCTION      0.00   411.84     0  03:17           0        3.12       0.481
  WS02004411           JUNCTION      0.00   411.84     0  03:17           0        3.11       0.511
  WS02004412           JUNCTION      0.00   411.82     0  03:18           0        3.09       0.573
  WS02004413           JUNCTION      0.00   411.83     0  03:18           0        3.08       0.879
  WS02006109           JUNCTION      1.23   411.63     0  02:36      0.0354        3.32       0.179
  WS02006110           JUNCTION      0.00   411.63     0  02:36           0        3.31       0.352
  WS02006111           JUNCTION      0.00   422.52     0  02:22           0         3.3       0.072
  WS02006112           JUNCTION      0.00   413.39     0  03:21           0        3.29       0.759
  WS02006113           JUNCTION      0.00   411.78     0  02:35           0         3.3       0.147
  WS02006115           JUNCTION      0.00   412.12     0  02:35           0        3.27       0.438
  WS02006116           JUNCTION      0.00   412.05     0  02:36           0        3.26       0.365
  WS02006228           JUNCTION      0.00   410.40     0  02:36           0        3.29       0.072
  WS02006229           JUNCTION      0.00   410.39     0  02:36           0         3.3       0.266
  WS02006230           JUNCTION     10.28   410.38     0  02:37       0.296         3.3       0.230
  WS02006231           JUNCTION      0.00   400.09     0  02:37           0        3.01       0.039
  WS02006232           JUNCTION      0.00   400.09     0  02:37           0        3.02       0.542
  WS02006234           JUNCTION      0.00   400.13     0  02:23           0        3.02      -0.168
  WS02006235           JUNCTION      0.00   400.25     0  02:23           0        3.04       0.401
  WS02006238           JUNCTION      0.00   400.13     0  02:23           0           3      -0.675
  WS02006239           JUNCTION      0.00   400.13     0  02:23           0        2.98      -0.487
  WS02006240           JUNCTION      0.00   400.08     0  02:38           0        2.98      -0.100
  WS02006242           JUNCTION      0.00   400.08     0  02:38           0        2.98       0.100
  WS02006243           JUNCTION      0.00   400.08     0  02:24           0        2.97      -0.229
  WS02006245           JUNCTION      0.00   400.11     0  02:24           0        2.99       0.809
  WS02006247           JUNCTION      0.00   400.09     0  02:23           0        2.99      -0.007
  WS02006248           JUNCTION      0.00   400.92     0  07:42           0        2.99       0.017
  WS02006249           JUNCTION      0.00   515.65     0  02:01           0        3.02       0.757
  WS02006251           JUNCTION      0.08   405.28     0  03:45     0.00222        3.02      -0.004
  WS02006252           JUNCTION      0.00   400.00     0  00:00           0        3.01      -0.144
  WS02006256           JUNCTION      0.00   300.00     0  00:00           0      0.0243      -5.868
  WSF200               JUNCTION      0.00   411.81     0  03:19           0        3.04       0.117
  YS02001580           JUNCTION      0.00   123.50     0  02:02           0     0.00442      -0.087
  YS02001583           JUNCTION      0.00   189.20     0  02:02           0      0.0151      -6.433
  YS02001586           JUNCTION    255.76   259.61     0  02:03       0.619       0.631       0.262
  YS02001590           JUNCTION      0.00   259.97     0  02:03           0       0.617      -0.054
  YS02001593           JUNCTION      0.00   260.42     0  02:03           0       0.617      -0.002
  YS02001596           JUNCTION      0.00   262.03     0  02:03           0       0.617      -0.022
  YS02001600           JUNCTION      0.00   262.85     0  02:03           0       0.617      -0.026
  YS02001601           JUNCTION    474.87   737.40     0  02:03       0.873        1.49       0.056
  YS02001602           JUNCTION      0.00   550.49     0  02:02           0        1.39       0.028
  YS02001605           JUNCTION      0.00   549.59     0  02:02           0        1.39       0.028
  YS02001607           JUNCTION      0.00   550.36     0  02:02           0        1.39       0.136
  YS02001610           JUNCTION      0.00   539.63     0  02:02           0        1.38       0.173
  YS02001613           JUNCTION      0.00   549.25     0  02:02           0        1.38       0.127
  YS02001616           JUNCTION      0.00   557.19     0  02:02           0        1.38       0.027
  YS02001619           JUNCTION    436.77   927.12     0  02:02        0.94        2.32      -0.003
  YS02001622           JUNCTION      0.00   925.89     0  02:02           0        2.32      -0.013
  YS02001625           JUNCTION      0.00   930.34     0  02:02           0        2.32       0.584
  YS02001629           JUNCTION      0.00   931.30     0  02:02           0        2.31       0.037
  YS02001633           JUNCTION    359.44  1263.22     0  02:02       0.648        2.96       0.451
  YS02001641           JUNCTION      0.00  1260.07     0  02:03           0        2.96       0.327
  YS02001644           JUNCTION    310.23  1573.60     0  02:02       0.528        3.49       0.313
  YS02001647           JUNCTION      0.00  1582.70     0  02:02           0        3.48       0.216
  YS02001649           JUNCTION      0.00  1944.50     0  02:04           0        4.02       0.445
  YS02001652           JUNCTION      0.00   397.55     0  02:04           0       0.549       0.909
  YS02001655           JUNCTION      0.15   312.91     0  02:03     0.00443       0.504       0.322
  YS02001658           JUNCTION      0.00   308.48     0  02:02           0       0.488      -0.063
  YS02001661           JUNCTION      0.00   307.99     0  02:02           0       0.488       0.072
  YS02001664           JUNCTION    308.20   308.20     0  02:02       0.488       0.488      -0.005
  YS02001745           JUNCTION    200.52   200.52     0  02:02       0.291       0.291      -0.002
  YS02001748           JUNCTION      0.04   200.30     0  02:02      0.0013       0.292      -0.046
  YS02001751           JUNCTION      0.01   200.29     0  02:02    0.000317       0.371       0.050
  YS02001754           JUNCTION      0.26   396.25     0  02:30     0.00749       0.619       1.077
  YS02001757           JUNCTION      0.00  2627.00     0  02:07           0        5.55       1.162
  YS02001759           JUNCTION    287.38   612.51     0  02:07       0.421         1.1       1.109
  YS02001762           JUNCTION      0.00   395.95     0  02:06           0       0.688       1.516
  YS02001765           JUNCTION      0.00   386.71     0  02:06           0       0.687       1.616
  YS02001767           JUNCTION      0.54   373.75     0  02:06      0.0154       0.691       2.043
  YS02001770           JUNCTION    393.63   393.63     0  02:03       0.632       0.688       1.707
  YS02001774           JUNCTION      0.00    91.60     0  02:03           0      0.0902      13.909
  YS02001779           JUNCTION      0.01    61.87     0  02:04    0.000144      0.0401       8.223
  YS02001783           JUNCTION      0.00   924.79     0  02:05           0        1.94       0.368
  YS02001784           JUNCTION      1.06   926.95     0  02:05      0.0305        1.96       0.546
  YS02001786           JUNCTION      0.06   928.34     0  02:05     0.00162        1.95       0.679
  YS02001788           JUNCTION      0.07   884.68     0  02:04     0.00204        1.94       0.711
  YS02001790           JUNCTION      0.15   880.32     0  02:04     0.00446        1.93       0.882
  YS02001791           JUNCTION      0.00   885.59     0  02:03           0        1.91       0.737
  YS02001793           JUNCTION      0.00   839.05     0  02:09           0         1.9       0.869
  YS02001882           JUNCTION      0.00    49.81     0  02:05           0      0.0123       3.759
  YS02001884           JUNCTION      0.00    58.94     0  02:05           0      0.0479       4.926
  YS02001887           JUNCTION    318.08   318.08     0  02:02        0.45       0.484       0.885
  YS02001890           JUNCTION      0.00   273.99     0  02:02           0       0.443       1.112
  YS02001895           JUNCTION      0.00   266.74     0  02:06           0       0.439       0.272
  YS02001898           JUNCTION      0.00   269.31     0  02:06           0       0.437       0.079
  YS02001901           JUNCTION      0.00   283.62     0  02:06           0        0.44       0.667
  YS02001904           JUNCTION      0.00   284.76     0  02:06           0       0.445       0.588
  YS02001907           JUNCTION      0.00   598.48     0  02:12           0        1.37       1.296
  YS02001910           JUNCTION      0.00   438.20     0  02:10           0       0.933       0.746
  YS02001915           JUNCTION    320.12   435.23     0  02:10       0.544       0.936       0.144
  YS02001918           JUNCTION      0.00   224.27     0  02:12           0       0.393       0.070
  YS02001920           JUNCTION      2.87   222.15     0  02:08      0.0827       0.392       0.267
  YS02001923           JUNCTION      0.04   194.27     0  02:07     0.00109       0.308      -0.121
  YS02001926           JUNCTION      0.05   160.30     0  02:04      0.0015       0.308       0.254
  YS02001929           JUNCTION    160.33   160.33     0  02:04       0.306       0.306      -0.006
  YS02006553           JUNCTION      0.00   598.58     0  02:14           0        1.36       0.854
  YS02006556           JUNCTION      0.00   598.43     0  02:12           0        1.37       0.589
  YS02006558           JUNCTION    391.70   927.56     0  02:05        0.62        1.97       0.170
  YS02006561           JUNCTION      0.00   926.02     0  02:05           0        1.94      -0.007
  YS02163301           JUNCTION      0.00   903.01     0  02:02           0        2.31       0.368
  YS02163601           JUNCTION      0.11  1263.09     0  02:02     0.00317        2.96       0.490
  YS02164001           JUNCTION      0.00  1261.74     0  02:02           0        2.95       0.288
  CC-1                 OUTFALL       0.00   683.00     0  00:00           0       0.208       0.000
  CC-2                 OUTFALL       0.00   683.00     0  00:00           0       0.208       0.000
  JK-1                 OUTFALL       0.00  1000.00     0  00:00           0      0.0791       0.000
  JK-2                 OUTFALL       0.00  1000.00     0  00:00           0      0.0791       0.000
  WSC                  OUTFALL       0.00   818.13     0  03:18           0        14.4       0.000
  CC-storage           STORAGE       0.00  2463.07     0  02:06           0         7.4       0.266
  JK-storage           STORAGE       0.00   971.79     0  02:03           0        2.03       0.751
  XR-storage           STORAGE     200.00   200.00     0  00:00        5.76        6.36     -41.886
  
  
  **********************
  Node Surcharge Summary
  **********************
  
  Surcharging occurs when water rises above the top of the highest conduit.
  ---------------------------------------------------------------------
                                               Max. Height   Min. Depth
                                   Hours       Above Crown    Below Rim
  Node                 Type      Surcharged         Meters       Meters
  ---------------------------------------------------------------------
  WS02006109           JUNCTION        1.11          0.015        1.805
  WS02006228           JUNCTION        1.10          0.013        2.187
  WS02006229           JUNCTION        1.11          0.024        2.426
  WS02006232           JUNCTION        1.17          0.050        1.430
  WS02006235           JUNCTION        1.11          0.044        1.246
  WS02006238           JUNCTION        1.14          0.071        1.359
  WS02006239           JUNCTION        1.12          0.059        1.231
  WS02006240           JUNCTION        1.12          0.074        1.316
  WS02006242           JUNCTION        1.22          0.164        0.656
  WS02006243           JUNCTION        1.14          0.122        0.648
  WS02006245           JUNCTION        1.14          0.134        0.716
  WS02006247           JUNCTION        1.16          0.169        0.591
  WS02006248           JUNCTION        1.13          0.131        0.249
  WS02006249           JUNCTION        1.15          0.184        0.206
  WS02006252           JUNCTION        2.01          1.100        0.000
  WS02006256           JUNCTION        3.80          2.050        0.000
  YS02001580           JUNCTION        0.07          0.450        0.000
  YS02001583           JUNCTION        0.08          0.351        0.149
  YS02001586           JUNCTION        0.24          0.510        0.000
  YS02001590           JUNCTION        0.30          0.750        0.000
  YS02001593           JUNCTION        0.30          0.840        0.000
  YS02001596           JUNCTION        0.38          1.070        0.000
  YS02001600           JUNCTION        0.48          1.190        0.000
  YS02001601           JUNCTION        0.76          1.440        0.000
  YS02001602           JUNCTION        0.66          1.270        0.000
  YS02001605           JUNCTION        0.62          1.174        0.006
  YS02001607           JUNCTION        0.24          0.636        0.044
  YS02001610           JUNCTION        0.27          0.680        0.000
  YS02001613           JUNCTION        0.24          0.661        0.039
  YS02001616           JUNCTION        0.20          0.595        0.015
  YS02001619           JUNCTION        0.19          0.568        0.042
  YS02001622           JUNCTION        0.18          0.539        0.081
  YS02001625           JUNCTION        0.34          0.780        0.000
  YS02001629           JUNCTION        0.10          0.470        0.000
  YS02001633           JUNCTION        0.35          0.776        0.284
  YS02001641           JUNCTION        0.27          0.396        0.704
  YS02001644           JUNCTION        0.23          0.222        0.698
  YS02001783           JUNCTION        0.28          0.505        1.095
  YS02001784           JUNCTION        0.27          0.636        0.854
  YS02001786           JUNCTION        0.26          0.690        0.740
  YS02001788           JUNCTION        0.26          0.896        0.584
  YS02001790           JUNCTION        5.92          1.157        0.000
  YS02001791           JUNCTION        5.93          0.721        1.199
  YS02001793           JUNCTION        5.94          0.932        1.668
  YS02001882           JUNCTION        0.10          0.631        0.199
  YS02001884           JUNCTION        0.13          0.628        0.242
  YS02001887           JUNCTION        0.18          0.622        0.328
  YS02001890           JUNCTION        0.20          0.527        0.233
  YS02001895           JUNCTION        0.08          0.278        0.472
  YS02001898           JUNCTION        0.07          0.228        0.512
  YS02001901           JUNCTION        0.16          0.337        0.533
  YS02001904           JUNCTION        0.15          0.278        0.572
  YS02001907           JUNCTION        0.34          0.575        0.375
  YS02001910           JUNCTION        0.22          0.358        0.742
  YS02001915           JUNCTION        0.11          0.158        0.842
  YS02006553           JUNCTION        0.35          0.573        0.617
  YS02006556           JUNCTION        0.29          0.486        0.864
  YS02006558           JUNCTION        0.28          0.461        0.939
  YS02006561           JUNCTION        0.01          0.024        1.126
  YS02163301           JUNCTION        0.34          0.850        0.180
  YS02163601           JUNCTION        0.37          0.670        0.410
  YS02164001           JUNCTION        0.28          0.495        0.605
  
  
  *********************
  Node Flooding Summary
  *********************
  
  Flooding refers to all water that overflows a node, whether it ponds or not.
  --------------------------------------------------------------------------
                                                             Total   Maximum
                                 Maximum   Time of Max       Flood    Ponded
                        Hours       Rate    Occurrence      Volume     Depth
  Node                 Flooded       LPS   days hr:min    10^6 ltr    Meters
  --------------------------------------------------------------------------
  WS02006252              0.01    277.46      0  02:00       0.000     0.000
  WS02006256              0.02    293.19      0  00:00       0.005     0.000
  YS02001580              0.01    103.13      0  02:02       0.000     0.000
  YS02001586              0.01     77.66      0  02:02       0.001     0.000
  YS02001590              0.01     99.48      0  02:00       0.000     0.000
  YS02001593              0.01      1.81      0  02:02       0.000     0.000
  YS02001596              0.01      1.27      0  02:02       0.000     0.000
  YS02001600              0.01      1.76      0  02:02       0.000     0.000
  YS02001601              0.18    284.34      0  02:03       0.102     0.000
  YS02001602              0.01     20.94      0  02:02       0.000     0.000
  YS02001610              0.01     24.17      0  02:02       0.000     0.000
  YS02001625              0.01     23.75      0  02:02       0.000     0.000
  YS02001629              0.01    106.54      0  02:02       0.000     0.000
  YS02001790              0.01    276.74      0  02:04       0.000     0.000
  JK-storage              5.92    839.27      0  02:09       1.546     0.000
  
  
  **********************
  Storage Volume Summary
  **********************
  
  ------------------------------------------------------------------------------------------------
                         Average    Avg   Evap  Exfil     Maximum    Max    Time of Max    Maximum
                          Volume   Pcnt   Pcnt   Pcnt      Volume   Pcnt     Occurrence    Outflow
  Storage Unit           1000 m³   Full   Loss   Loss     1000 m³   Full    days hr:min        LPS
  ------------------------------------------------------------------------------------------------
  CC-storage               3.576   55.8    0.0    0.0       4.518   70.5       0  02:49    1783.53
  JK-storage               0.234   80.3    0.0    0.0       0.291  100.0       0  02:04    2300.00
  XR-storage               0.031    2.1    0.0    0.0       0.600   41.7       0  00:00     380.00
  
  
  ***********************
  Outfall Loading Summary
  ***********************
  
  -----------------------------------------------------------
                         Flow       Avg       Max       Total
                         Freq      Flow      Flow      Volume
  Outfall Node           Pcnt       LPS       LPS    10^6 ltr
  -----------------------------------------------------------
  CC-1                   1.13    683.00    683.00       0.208
  CC-2                   1.13    683.00    683.00       0.208
  JK-1                   1.06    347.46   1000.00       0.079
  JK-2                   1.06    347.46   1000.00       0.079
  WSC                   99.93    529.80    818.13      14.408
  -----------------------------------------------------------
  System                20.86   2590.73   3366.35      14.983
  
  
  ********************
  Link Flow Summary
  ********************
  
  -----------------------------------------------------------------------------
                                 Maximum  Time of Max   Maximum    Max/    Max/
                                  |Flow|   Occurrence   |Veloc|    Full    Full
  Link                 Type          LPS  days hr:min     m/sec    Flow   Depth
  -----------------------------------------------------------------------------
  1                    CONDUIT    818.13     0  03:18      3.15    0.28    0.37
  WS02001211WS02001212 CONDUIT    390.85     0  03:36      0.78    0.30    0.64
  WS02001212WS02001213 CONDUIT    392.61     0  03:35      1.32    0.61    0.45
  WS02001213WS02003059 CONDUIT    395.66     0  03:35      0.85    0.65    0.75
  WS02003059WS02003060 CONDUIT    399.94     0  03:35      0.95    0.26    0.63
  WS02003060WS02003069 CONDUIT    816.00     0  03:19      1.80    0.32    0.42
  WS02003066WSF200     CONDUIT    411.81     0  03:19      2.69    0.07    0.19
  WS02003067WS02003066 CONDUIT    411.81     0  03:18      1.04    0.13    0.38
  WS02003069WS02003072 CONDUIT    816.31     0  03:20      1.55    0.39    0.47
  WS02003072WS02003073 CONDUIT    816.31     0  03:20      1.64    1.76    0.45
  WS02004138WS02004139 CONDUIT    395.20     0  00:00      3.65    0.08    0.43
  WS02004139WS02001211 CONDUIT    381.79     0  03:34      0.91    0.48    0.59
  WS02004401WS02004402 CONDUIT    411.91     0  02:36      0.99    0.49    0.77
  WS02004402WS02004403 CONDUIT    411.88     0  02:36      0.99    0.59    0.79
  WS02004403WS02004404 CONDUIT    411.86     0  02:37      0.93    0.30    0.84
  WS02004404WS02004405 CONDUIT    412.01     0  02:37      1.10    4.04    0.88
  WS02004405WS02004406 CONDUIT    412.10     0  02:37      1.03    0.81    0.88
  WS02004406WS02004407 CONDUIT    411.93     0  02:37      0.89    0.18    0.57
  WS02004407WS02004409 CONDUIT    411.88     0  02:37      1.37    0.15    0.42
  WS02004409WS02004410 CONDUIT    411.84     0  03:17      0.88    0.53    0.58
  WS02004410WS02004411 CONDUIT    411.84     0  03:17      0.84    0.56    0.60
  WS02004411WS02004412 CONDUIT    411.82     0  03:18      0.81    0.58    0.61
  WS02004412WS02004413 CONDUIT    411.83     0  03:18      0.70    0.28    0.70
  WS02004413WS02003067 CONDUIT    411.81     0  03:18      0.96    0.18    0.53
  WS02006109WS02006110 CONDUIT    411.63     0  02:36      0.84    0.79    0.94
  WS02006110WS02006113 CONDUIT    411.78     0  02:35      1.03    0.37    0.75
  WS02006111WS02006112 CONDUIT    413.39     0  03:21      1.83    0.20    0.65
  WS02006112WS02006115 CONDUIT    412.12     0  02:35      0.70    0.24    0.78
  WS02006113WS02006111 CONDUIT    422.52     0  02:22      2.24    0.51    0.40
  WS02006115WS02006116 CONDUIT    412.05     0  02:36      0.98    0.53    0.66
  WS02006116WS02004401 CONDUIT    411.95     0  02:36      1.00    0.57    0.74
  WS02006228WS02006109 CONDUIT    410.40     0  02:36      1.06    1.79    1.00
  WS02006229WS02006228 CONDUIT    410.40     0  02:36      1.13    1.36    1.00
  WS02006230WS02006229 CONDUIT    410.39     0  02:36      1.22    9.13    1.00
  WS02006231WS02006230 CONDUIT    400.10     0  02:37      1.37    6.07    0.77
  WS02006232WS02006231 CONDUIT    400.09     0  02:37      1.08    0.84    0.92
  WS02006234WS02006232 CONDUIT    400.09     0  02:37      1.40    0.81    1.00
  WS02006235WS02006234 CONDUIT    400.13     0  02:23      1.30    4.22    0.99
  WS02006238WS02006235 CONDUIT    400.25     0  02:23      1.48    0.89    1.00
  WS02006239WS02006238 CONDUIT    400.13     0  02:23      1.21    1.28    1.00
  WS02006240WS02006239 CONDUIT    400.13     0  02:23      1.30    1.26    1.00
  WS02006242WS02006240 CONDUIT    400.08     0  02:38      1.17    1.59    1.00
  WS02006243WS02006242 CONDUIT    400.08     0  02:38      1.43    0.85    1.00
  WS02006245WS02006243 CONDUIT    400.08     0  02:24      1.45    1.18    1.00
  WS02006247WS02006245 CONDUIT    400.11     0  02:24      1.43    3.17    1.00
  WS02006248WS02006247 CONDUIT    400.09     0  02:23      1.46    0.87    1.00
  WS02006249WS02006248 CONDUIT    400.92     0  07:42      1.40    2.20    1.00
  WS02006251WS02006249 CONDUIT    515.65     0  02:01      2.05    1.49    1.00
  WS02006252WS02006251 CONDUIT    405.21     0  03:45     26.93    1.49    1.00
  WS02006256WS02006235 CONDUIT    288.91     0  00:00      4.23    3.06    1.00
  WSF200WS02003060     CONDUIT    411.81     0  03:19      1.43    0.09    0.30
  YS02001580YS02001583 CONDUIT    123.50     0  02:02      0.77    0.48    1.00
  YS02001583YS02001586 CONDUIT    165.14     0  02:02      0.74    0.25    1.00
  YS02001586YS02001590 CONDUIT    259.97     0  02:03      1.30    0.46    1.00
  YS02001590YS02001593 CONDUIT    260.42     0  02:03      1.03    1.63    1.00
  YS02001593YS02001596 CONDUIT    262.03     0  02:03      1.69    0.41    1.00
  YS02001596YS02001600 CONDUIT    262.85     0  02:03      1.18    0.51    1.00
  YS02001600YS02001601 CONDUIT    263.42     0  02:03      0.93    0.45    1.00
  YS02001601YS02001602 CONDUIT    550.49     0  02:02      1.95    1.99    1.00
  YS02001602YS02001605 CONDUIT    549.59     0  02:02      1.94   11.63    1.00
  YS02001605YS02001607 CONDUIT    550.36     0  02:02      1.95    3.02    1.00
  YS02001607YS02001610 CONDUIT    539.63     0  02:02      0.70    0.51    1.00
  YS02001610YS02001613 CONDUIT    549.25     0  02:02      0.70    0.63    1.00
  YS02001613YS02001616 CONDUIT    557.19     0  02:02      0.71    0.48    1.00
  YS02001616YS02001619 CONDUIT    513.65     0  02:12      0.68    0.89    1.00
  YS02001619YS02001622 CONDUIT    925.89     0  02:02      1.27    1.36    1.00
  YS02001622YS02001625 CONDUIT    930.34     0  02:02      1.18    0.50    1.00
  YS02001625YS02001629 CONDUIT    931.30     0  02:02      1.19    0.44    1.00
  YS02001629YS02163301 CONDUIT    903.01     0  02:02      1.15    1.11    1.00
  YS02001633YS02163601 CONDUIT   1262.98     0  02:02      1.61    1.33    1.00
  YS02001641YS02001644 CONDUIT   1264.48     0  02:02      1.61    4.09    1.00
  YS02001644YS02001647 CONDUIT   1582.70     0  02:02      2.17    0.93    0.91
  YS02001647YS02001649 CONDUIT   1603.02     0  02:03      2.33    0.85    0.86
  YS02001649YS02001757 CONDUIT   1916.86     0  02:04      2.56    1.16    0.93
  YS02001652YS02001649 CONDUIT    410.11     0  02:04      0.76    0.20    0.83
  YS02001655YS02001652 CONDUIT    397.55     0  02:04      1.46    0.19    0.57
  YS02001658YS02001655 CONDUIT    312.75     0  02:03      1.97    0.13    0.36
  YS02001661YS02001658 CONDUIT    308.48     0  02:02      2.13    0.12    0.24
  YS02001664YS02001661 CONDUIT    307.99     0  02:02      1.92    0.10    0.26
  YS02001745YS02001748 CONDUIT    200.25     0  02:02      1.96    0.08    0.19
  YS02001748YS02001751 CONDUIT    200.27     0  02:02      1.64    0.10    0.25
  YS02001751YS02001754 CONDUIT    242.84     0  02:06      1.52    0.12    0.44
  YS02001754YS02001757 CONDUIT    312.54     0  02:06      0.54    0.13    0.78
  YS02001757CaochengTiaoxuchi CONDUIT   2463.07     0  02:06      3.29    1.07    0.98
  YS02001759YS02001757 CONDUIT    603.98     0  02:06      0.93    0.43    0.90
  YS02001762YS02001759 CONDUIT    398.72     0  02:07      0.59    0.46    0.84
  YS02001765YS02001762 CONDUIT    395.95     0  02:06      0.72    0.37    0.80
  YS02001767YS02001765 CONDUIT    386.71     0  02:06      0.84    0.49    0.75
  YS02001770YS02001767 CONDUIT    373.21     0  02:06      0.86    1.48    0.74
  YS02001774YS02001770 CONDUIT     91.60     0  02:03      0.17    0.06    0.77
  YS02001779YS02001774 CONDUIT     61.87     0  02:04      0.12    0.03    0.69
  YS02001783YS02001784 CONDUIT    925.89     0  02:05      1.84    1.28    1.00
  YS02001784YS02001785 CONDUIT    928.29     0  02:05      1.91    2.16    1.00
  YS02001786YS02001788 CONDUIT    884.60     0  02:04      2.29    1.70    1.00
  YS02001788YS02001790 CONDUIT    880.17     0  02:04      2.40    0.65    1.00
  YS02001790YS02001791 CONDUIT    885.59     0  02:03      2.91    0.96    1.00
  YS02001791YS02001793 CONDUIT    839.05     0  02:09      5.74    0.36    1.00
  YS02001793JiankangQianchi CONDUIT    971.79     0  02:03      1.60    0.08    1.00
  YS02001882YS02001884 CONDUIT     49.81     0  02:05      0.08    0.06    1.00
  YS02001884YS02001887 CONDUIT     58.94     0  02:05      0.09    0.08    1.00
  YS02001887YS02001890 CONDUIT    273.99     0  02:02      0.37    0.47    1.00
  YS02001890YS02001895 CONDUIT    266.74     0  02:06      0.37    0.12    1.00
  YS02001895YS02001898 CONDUIT    269.31     0  02:06      0.41    0.47    1.00
  YS02001898YS02001901 CONDUIT    283.62     0  02:06      0.36    0.18    1.00
  YS02001901YS02001904 CONDUIT    284.76     0  02:06      0.36    0.44    1.00
  YS02001904YS02001907 CONDUIT    290.98     0  02:06      0.37    0.10    1.00
  YS02001907YS02006553 CONDUIT    598.58     0  02:14      0.67    0.70    1.00
  YS02001910YS02001907 CONDUIT    438.58     0  02:10      0.56    0.25    1.00
  YS02001915YS02001910 CONDUIT    438.20     0  02:10      0.56    0.22    1.00
  YS02001918YS02001915 CONDUIT    236.16     0  02:12      0.44    0.13    0.91
  YS02001920YS02001918 CONDUIT    224.27     0  02:12      0.66    0.22    0.85
  YS02001923YS02001920 CONDUIT    219.28     0  02:08      0.77    0.10    0.74
  YS02001926YS02001923 CONDUIT    194.24     0  02:07      0.92    0.28    0.42
  YS02001929YS02001926 CONDUIT    160.25     0  02:04      1.01    0.08    0.31
  YS02006553YS02006556 CONDUIT    598.43     0  02:12      0.76    0.51    1.00
  YS02006556YS02006558 CONDUIT    599.83     0  02:14      0.76    0.47    1.00
  YS02006558YS02006561 CONDUIT    926.02     0  02:05      3.54    2.05    1.00
  YS02006561YS02001783 CONDUIT    924.79     0  02:05      2.18    0.48    1.00
  YS02163301YS02001633 CONDUIT    904.77     0  02:02      1.15    0.85    1.00
  YS02163601YS02164001 CONDUIT   1261.74     0  02:02      1.61    1.12    1.00
  YS02164001YS02001641 CONDUIT   1260.07     0  02:03      1.60    1.72    1.00
  CC-R1                PUMP       683.00     0  00:00              1.00
  CC-R2                PUMP       683.00     0  00:00              1.00
  CC-S1                PUMP       200.00     0  00:00              1.00
  CC-S2                PUMP       200.00     0  00:00              1.00
  JK-R1                PUMP      1000.00     0  00:00              1.00
  JK-R2                PUMP      1000.00     0  00:00              1.00
  JK-S                 PUMP       300.00     0  00:00              1.00
  XR-1                 PUMP        95.00     0  00:00              1.00
  XR-2                 PUMP        95.00     0  00:00              1.00
  XR-3                 PUMP        95.00     0  00:00              1.00
  XR-4                 PUMP        95.00     0  00:00              1.00
  
  
  ***************************
  Flow Classification Summary
  ***************************
  
  -------------------------------------------------------------------------------------
                      Adjusted    ---------- Fraction of Time in Flow Class ---------- 
                       /Actual         Up    Down  Sub   Sup   Up    Down  Norm  Inlet 
  Conduit               Length    Dry  Dry   Dry   Crit  Crit  Crit  Crit  Ltd   Ctrl  
  -------------------------------------------------------------------------------------
  1                       1.00   0.00  0.00  0.00  0.00  1.00  0.00  0.00  0.25  0.00
  WS02001211WS02001212    1.00   0.00  0.00  0.00  1.00  0.00  0.00  0.00  0.00  0.00
  WS02001212WS02001213    1.00   0.00  0.00  0.00  0.42  0.00  0.57  0.00  0.00  0.00
  WS02001213WS02003059    1.00   0.00  0.00  0.00  0.99  0.00  0.00  0.00  0.00  0.00
  WS02003059WS02003060    1.00   0.00  0.00  0.00  1.00  0.00  0.00  0.00  0.00  0.00
  WS02003060WS02003069    1.00   0.00  0.00  0.00  0.99  0.01  0.00  0.00  0.00  0.00
  WS02003066WSF200        1.00   0.02  0.10  0.00  0.00  0.88  0.00  0.00  0.85  0.00
  WS02003067WS02003066    1.00   0.10  0.02  0.00  0.89  0.00  0.00  0.00  0.00  0.00
  WS02003069WS02003072    1.00   0.00  0.00  0.00  0.99  0.01  0.00  0.00  0.00  0.00
  WS02003072WS02003073    1.00   0.00  0.00  0.00  0.00  0.00  0.00  1.00  0.00  0.00
  WS02004138WS02004139    1.00   0.00  0.00  0.00  0.99  0.01  0.00  0.00  1.00  0.00
  WS02004139WS02001211    1.00   0.00  0.00  0.00  1.00  0.00  0.00  0.00  0.00  0.00
  WS02004401WS02004402    1.00   0.02  0.00  0.00  0.98  0.00  0.00  0.00  0.00  0.00
  WS02004402WS02004403    1.00   0.02  0.00  0.00  0.98  0.00  0.00  0.00  0.00  0.00
  WS02004403WS02004404    1.00   0.00  0.03  0.00  0.97  0.00  0.00  0.00  0.00  0.00
  WS02004404WS02004405    1.00   0.00  0.00  0.00  1.00  0.00  0.00  0.00  0.00  0.00
  WS02004405WS02004406    1.00   0.00  0.00  0.00  1.00  0.00  0.00  0.00  0.00  0.00
  WS02004406WS02004407    1.00   0.00  0.05  0.00  0.95  0.00  0.00  0.00  0.00  0.00
  WS02004407WS02004409    1.00   0.05  0.00  0.00  0.94  0.01  0.00  0.00  0.94  0.00
  WS02004409WS02004410    1.00   0.05  0.00  0.00  0.95  0.00  0.00  0.00  0.03  0.00
  WS02004410WS02004411    1.00   0.05  0.00  0.00  0.95  0.00  0.00  0.00  0.00  0.00
  WS02004411WS02004412    1.00   0.05  0.00  0.00  0.95  0.00  0.00  0.00  0.00  0.00
  WS02004412WS02004413    1.00   0.05  0.00  0.00  0.94  0.00  0.00  0.00  0.01  0.00
  WS02004413WS02003067    1.00   0.06  0.04  0.00  0.00  0.00  0.90  0.00  0.00  0.00
  WS02006109WS02006110    1.00   0.00  0.01  0.00  0.98  0.00  0.01  0.00  0.00  0.00
  WS02006110WS02006113    1.00   0.01  0.01  0.00  0.98  0.00  0.00  0.00  0.00  0.00
  WS02006111WS02006112    1.00   0.02  0.00  0.00  0.98  0.00  0.00  0.00  0.98  0.00
  WS02006112WS02006115    1.00   0.02  0.00  0.00  0.97  0.00  0.00  0.00  0.00  0.00
  WS02006113WS02006111    1.00   0.02  0.00  0.00  0.00  0.98  0.00  0.00  0.16  0.00
  WS02006115WS02006116    1.00   0.02  0.00  0.00  0.97  0.00  0.00  0.01  0.00  0.00
  WS02006116WS02004401    1.00   0.02  0.00  0.00  0.98  0.00  0.00  0.00  0.00  0.00
  WS02006228WS02006109    1.00   0.00  0.00  0.00  1.00  0.00  0.00  0.00  0.01  0.00
  WS02006229WS02006228    1.00   0.00  0.00  0.00  0.99  0.00  0.00  0.01  0.00  0.00
  WS02006230WS02006229    1.00   0.00  0.00  0.00  0.99  0.00  0.00  0.01  0.00  0.00
  WS02006231WS02006230    1.00   0.00  0.00  0.00  0.16  0.00  0.83  0.00  0.00  0.00
  WS02006232WS02006231    1.00   0.00  0.00  0.00  0.99  0.00  0.01  0.00  0.00  0.00
  WS02006234WS02006232    1.00   0.00  0.00  0.00  1.00  0.00  0.00  0.00  0.43  0.00
  WS02006235WS02006234    1.00   0.00  0.00  0.00  0.53  0.00  0.47  0.00  0.00  0.00
  WS02006238WS02006235    1.00   0.00  0.00  0.00  1.00  0.00  0.00  0.00  0.00  0.00
  WS02006239WS02006238    1.00   0.00  0.00  0.00  1.00  0.00  0.00  0.00  0.52  0.00
  WS02006240WS02006239    1.00   0.00  0.00  0.00  0.44  0.00  0.00  0.56  0.02  0.00
  WS02006242WS02006240    1.00   0.00  0.00  0.00  0.98  0.00  0.01  0.00  0.00  0.00
  WS02006243WS02006242    1.00   0.00  0.00  0.00  0.98  0.00  0.00  0.01  0.63  0.00
  WS02006245WS02006243    1.00   0.00  0.00  0.00  0.49  0.00  0.00  0.51  0.00  0.00
  WS02006247WS02006245    1.00   0.00  0.00  0.00  0.98  0.00  0.00  0.02  0.00  0.00
  WS02006248WS02006247    1.00   0.00  0.00  0.00  0.99  0.00  0.00  0.01  0.17  0.00
  WS02006249WS02006248    1.00   0.00  0.00  0.00  0.36  0.00  0.64  0.00  0.00  0.00
  WS02006251WS02006249    1.00   0.00  0.00  0.00  1.00  0.00  0.00  0.00  0.65  0.00
  WS02006252WS02006251    1.00   0.03  0.69  0.00  0.00  0.00  0.28  0.00  0.00  0.00
  WS02006256WS02006235    1.00   0.00  0.00  0.00  1.00  0.00  0.00  0.00  0.00  0.00
  WSF200WS02003060        1.00   0.00  0.02  0.00  0.98  0.00  0.00  0.00  0.74  0.00
  YS02001580YS02001583    1.00   0.25  0.62  0.00  0.13  0.00  0.00  0.00  0.71  0.00
  YS02001583YS02001586    1.00   0.52  0.30  0.00  0.18  0.00  0.00  0.00  0.71  0.00
  YS02001586YS02001590    1.00   0.13  0.00  0.00  0.33  0.05  0.00  0.50  0.33  0.00
  YS02001590YS02001593    1.00   0.13  0.01  0.00  0.05  0.00  0.81  0.00  0.00  0.00
  YS02001593YS02001596    1.00   0.14  0.00  0.00  0.06  0.01  0.00  0.79  0.01  0.00
  YS02001596YS02001600    1.00   0.14  0.00  0.00  0.12  0.02  0.00  0.73  0.05  0.00
  YS02001600YS02001601    1.00   0.13  0.01  0.00  0.86  0.00  0.00  0.00  0.67  0.00
  YS02001601YS02001602    1.00   0.13  0.02  0.00  0.86  0.00  0.00  0.00  0.00  0.00
  YS02001602YS02001605    1.00   0.14  0.00  0.00  0.86  0.00  0.00  0.00  0.00  0.00
  YS02001605YS02001607    1.00   0.14  0.00  0.00  0.86  0.00  0.00  0.00  0.00  0.00
  YS02001607YS02001610    1.00   0.13  0.01  0.00  0.85  0.00  0.00  0.00  0.02  0.00
  YS02001610YS02001613    1.00   0.13  0.00  0.00  0.87  0.00  0.00  0.00  0.02  0.00
  YS02001613YS02001616    1.00   0.13  0.00  0.00  0.87  0.00  0.00  0.00  0.01  0.00
  YS02001616YS02001619    1.00   0.13  0.00  0.00  0.87  0.00  0.00  0.00  0.00  0.00
  YS02001619YS02001622    1.00   0.13  0.00  0.00  0.87  0.00  0.00  0.00  0.03  0.00
  YS02001622YS02001625    1.00   0.13  0.00  0.00  0.87  0.00  0.00  0.00  0.07  0.00
  YS02001625YS02001629    1.00   0.13  0.07  0.00  0.57  0.00  0.23  0.00  0.00  0.00
  YS02001629YS02163301    1.00   0.17  0.01  0.00  0.81  0.00  0.00  0.00  0.00  0.00
  YS02001633YS02163601    1.00   0.00  0.01  0.00  0.99  0.00  0.00  0.00  0.16  0.00
  YS02001641YS02001644    1.00   0.00  0.01  0.00  0.99  0.00  0.00  0.00  0.00  0.00
  YS02001644YS02001647    1.00   0.00  0.20  0.00  0.80  0.00  0.00  0.00  0.00  0.00
  YS02001647YS02001649    1.00   0.00  0.20  0.00  0.80  0.00  0.00  0.00  0.02  0.00
  YS02001649YS02001757    1.00   0.00  0.00  0.00  0.98  0.02  0.00  0.00  0.21  0.00
  YS02001652YS02001649    1.00   0.00  0.00  0.00  0.96  0.04  0.00  0.00  0.20  0.00
  YS02001655YS02001652    1.00   0.00  0.00  0.00  0.75  0.00  0.00  0.24  0.00  0.00
  YS02001658YS02001655    1.00   0.00  0.15  0.00  0.75  0.10  0.00  0.00  0.78  0.00
  YS02001661YS02001658    1.00   0.15  0.00  0.00  0.46  0.39  0.00  0.00  0.76  0.00
  YS02001664YS02001661    1.00   0.13  0.00  0.00  0.79  0.08  0.00  0.00  0.87  0.00
  YS02001745YS02001748    1.00   0.00  0.00  0.00  0.00  0.00  0.00  1.00  0.00  0.00
  YS02001748YS02001751    1.00   0.00  0.00  0.00  0.92  0.08  0.00  0.00  0.87  0.00
  YS02001751YS02001754    1.00   0.00  0.00  0.00  0.75  0.00  0.00  0.25  0.01  0.00
  YS02001754YS02001757    1.00   0.00  0.00  0.00  1.00  0.00  0.00  0.00  0.25  0.00
  YS02001757CaochengTiaoxuchi    1.00   0.00  0.00  0.00  0.99  0.01  0.00  0.00  0.24  0.00
  YS02001759YS02001757    1.00   0.00  0.00  0.00  1.00  0.00  0.00  0.00  0.06  0.00
  YS02001762YS02001759    1.00   0.00  0.00  0.00  1.00  0.00  0.00  0.00  0.06  0.00
  YS02001765YS02001762    1.00   0.00  0.00  0.00  1.00  0.00  0.00  0.00  0.19  0.00
  YS02001767YS02001765    1.00   0.00  0.00  0.00  1.00  0.00  0.00  0.00  0.00  0.00
  YS02001770YS02001767    1.00   0.00  0.00  0.00  1.00  0.00  0.00  0.00  0.00  0.00
  YS02001774YS02001770    1.00   0.00  0.14  0.00  0.86  0.00  0.00  0.00  0.05  0.00
  YS02001779YS02001774    1.00   0.00  0.00  0.00  1.00  0.00  0.00  0.00  0.21  0.00
  YS02001783YS02001784    1.00   0.00  0.21  0.00  0.79  0.00  0.00  0.00  0.00  0.00
  YS02001784YS02001785    1.00   0.00  0.00  0.00  1.00  0.00  0.00  0.00  0.20  0.00
  YS02001786YS02001788    1.00   0.00  0.00  0.00  0.96  0.04  0.00  0.00  0.00  0.00
  YS02001788YS02001790    1.00   0.00  0.00  0.00  0.96  0.04  0.00  0.00  0.22  0.00
  YS02001790YS02001791    1.00   0.00  0.00  0.00  0.75  0.25  0.00  0.00  0.02  0.00
  YS02001791YS02001793    1.00   0.00  0.00  0.00  0.74  0.26  0.00  0.00  0.00  0.00
  YS02001793JiankangQianchi    1.00   0.00  0.00  0.00  0.94  0.06  0.00  0.00  0.23  0.00
  YS02001882YS02001884    1.00   0.17  0.02  0.00  0.82  0.00  0.00  0.00  0.00  0.00
  YS02001884YS02001887    1.00   0.06  0.05  0.00  0.89  0.00  0.00  0.00  0.00  0.00
  YS02001887YS02001890    1.00   0.00  0.00  0.00  0.97  0.00  0.03  0.00  0.00  0.00
  YS02001890YS02001895    1.00   0.00  0.19  0.00  0.81  0.00  0.00  0.00  0.00  0.00
  YS02001895YS02001898    1.00   0.19  0.00  0.00  0.79  0.00  0.02  0.00  0.00  0.00
  YS02001898YS02001901    1.00   0.19  0.01  0.00  0.81  0.00  0.00  0.00  0.01  0.00
  YS02001901YS02001904    1.00   0.19  0.00  0.00  0.81  0.00  0.00  0.00  0.00  0.00
  YS02001904YS02001907    1.00   0.00  0.18  0.00  0.81  0.00  0.00  0.00  0.00  0.00
  YS02001907YS02006553    1.00   0.00  0.02  0.00  0.98  0.00  0.00  0.00  0.00  0.00
  YS02001910YS02001907    1.00   0.00  0.00  0.00  0.97  0.00  0.00  0.03  0.12  0.00
  YS02001915YS02001910    1.00   0.00  0.00  0.00  0.97  0.03  0.00  0.00  0.19  0.00
  YS02001918YS02001915    1.00   0.00  0.01  0.00  0.98  0.02  0.00  0.00  0.81  0.00
  YS02001920YS02001918    1.00   0.00  0.01  0.00  0.99  0.00  0.00  0.00  0.00  0.00
  YS02001923YS02001920    1.00   0.00  0.00  0.00  1.00  0.00  0.00  0.00  0.97  0.00
  YS02001926YS02001923    1.00   0.00  0.07  0.00  0.02  0.00  0.91  0.00  0.00  0.00
  YS02001929YS02001926    1.00   0.00  0.13  0.00  0.87  0.00  0.00  0.00  0.87  0.00
  YS02006553YS02006556    1.00   0.01  0.00  0.00  0.99  0.00  0.00  0.00  0.03  0.00
  YS02006556YS02006558    1.00   0.00  0.00  0.00  1.00  0.00  0.00  0.00  0.00  0.00
  YS02006558YS02006561    1.00   0.21  0.00  0.00  0.03  0.77  0.00  0.00  0.18  0.00
  YS02006561YS02001783    1.00   0.21  0.00  0.00  0.75  0.05  0.00  0.00  0.74  0.00
  YS02163301YS02001633    1.00   0.00  0.17  0.00  0.83  0.00  0.00  0.00  0.00  0.00
  YS02163601YS02164001    1.00   0.00  0.08  0.00  0.92  0.00  0.00  0.00  0.00  0.00
  YS02164001YS02001641    1.00   0.01  0.07  0.00  0.92  0.00  0.00  0.00  0.06  0.00
  
  
  *************************
  Conduit Surcharge Summary
  *************************
  
  ----------------------------------------------------------------------------
                                                           Hours        Hours 
                         --------- Hours Full --------   Above Full   Capacity
  Conduit                Both Ends  Upstream  Dnstream   Normal Flow   Limited
  ----------------------------------------------------------------------------
  WS02003072WS02003073        0.01      0.01      0.01      2.75         0.01
  WS02004404WS02004405        0.01      0.01      0.01      2.60         0.01
  WS02006109WS02006110        0.01      0.01      1.17      0.01         0.01
  WS02006110WS02006113        0.01      0.01      1.14      0.01         0.01
  WS02006111WS02006112        0.01      0.01      1.29      0.01         0.01
  WS02006228WS02006109        1.11      1.17      1.11      1.91         1.11
  WS02006229WS02006228        1.10      1.11      1.10      1.51         1.10
  WS02006230WS02006229        1.26      1.37      1.26      3.10         1.26
  WS02006231WS02006230        0.01      0.01      0.01      2.80         0.01
  WS02006232WS02006231        0.01      0.01      1.17      0.01         0.01
  WS02006234WS02006232        1.07      1.07      1.17      0.01         0.01
  WS02006235WS02006234        0.01      0.01      1.11      2.58         0.01
  WS02006238WS02006235        1.12      1.12      1.18      0.01         0.01
  WS02006239WS02006238        1.14      1.17      1.14      1.61         1.14
  WS02006240WS02006239        1.12      1.13      1.12      1.63         1.12
  WS02006242WS02006240        1.12      1.12      1.29      1.85         0.01
  WS02006243WS02006242        1.15      1.15      1.22      0.01         0.01
  WS02006245WS02006243        1.14      1.15      1.14      1.77         1.14
  WS02006247WS02006245        1.14      1.17      1.14      2.17         1.14
  WS02006248WS02006247        1.14      1.14      1.16      0.01         0.01
  WS02006249WS02006248        1.13      1.13      1.15      2.11         0.01
  WS02006251WS02006249        1.15      1.16      1.15      1.93         1.15
  WS02006252WS02006251        2.01      2.01      2.01      2.01         0.01
  WS02006256WS02006235        2.68      2.68      3.80      0.02         0.01
  YS02001580YS02001583        0.07      0.07      0.13      0.01         0.01
  YS02001583YS02001586        0.08      0.08      0.24      0.01         0.01
  YS02001586YS02001590        0.24      0.24      0.30      0.01         0.01
  YS02001590YS02001593        0.30      0.30      0.31      0.31         0.01
  YS02001593YS02001596        0.31      0.31      0.38      0.01         0.01
  YS02001596YS02001600        0.41      0.41      0.48      0.01         0.01
  YS02001600YS02001601        0.52      0.52      0.76      0.01         0.01
  YS02001601YS02001602        0.66      0.66      0.79      0.49         0.01
  YS02001602YS02001605        0.62      0.62      0.66      1.60         0.01
  YS02001605YS02001607        0.58      0.62      0.58      0.71         0.58
  YS02001607YS02001610        0.24      0.24      0.27      0.01         0.01
  YS02001610YS02001613        0.24      0.24      0.27      0.01         0.01
  YS02001613YS02001616        0.20      0.20      0.24      0.01         0.01
  YS02001616YS02001619        0.19      0.19      0.20      0.01         0.01
  YS02001619YS02001622        0.18      0.19      0.18      0.32         0.18
  YS02001622YS02001625        0.18      0.18      0.34      0.01         0.01
  YS02001625YS02001629        0.10      0.10      0.34      0.01         0.01
  YS02001629YS02163301        0.33      0.33      0.34      0.22         0.20
  YS02001633YS02163601        0.35      0.35      0.38      0.25         0.25
  YS02001641YS02001644        0.22      0.27      0.22      0.81         0.22
  YS02001644YS02001647        0.01      0.01      0.22      0.01         0.01
  YS02001649YS02001757        0.01      0.01      0.01      0.10         0.01
  YS02001757CaochengTiaoxuchi        0.01      0.01      5.88      0.09         0.01
  YS02001770YS02001767        0.01      0.01      0.01      0.19         0.01
  YS02001783YS02001784        0.26      0.28      0.27      0.26         0.19
  YS02001784YS02001785        0.26      0.27      0.26      0.42         0.26
  YS02001786YS02001788        0.26      0.26      0.26      0.37         0.26
  YS02001788YS02001790        0.26      0.26      5.92      0.01         0.01
  YS02001790YS02001791        5.92      5.92      5.93      0.01         0.01
  YS02001791YS02001793        5.93      5.93      5.94      0.01         0.01
  YS02001793JiankangQianchi        5.94      5.94      6.09      0.01         0.01
  YS02001882YS02001884        0.10      0.10      0.13      0.01         0.01
  YS02001884YS02001887        0.17      0.17      0.18      0.01         0.01
  YS02001887YS02001890        0.20      0.20      0.21      0.01         0.01
  YS02001890YS02001895        0.08      0.08      0.22      0.01         0.01
  YS02001895YS02001898        0.07      0.07      0.08      0.01         0.01
  YS02001898YS02001901        0.09      0.09      0.16      0.01         0.01
  YS02001901YS02001904        0.15      0.15      0.16      0.01         0.01
  YS02001904YS02001907        0.15      0.15      0.35      0.01         0.01
  YS02001907YS02006553        0.44      0.44      0.47      0.01         0.01
  YS02001910YS02001907        0.22      0.22      0.34      0.01         0.01
  YS02001915YS02001910        0.11      0.11      0.22      0.01         0.01
  YS02001918YS02001915        0.01      0.01      0.11      0.01         0.01
  YS02006553YS02006556        0.29      0.29      0.35      0.01         0.01
  YS02006556YS02006558        0.32      0.32      0.37      0.01         0.01
  YS02006558YS02006561        0.15      0.28      0.15      0.40         0.15
  YS02006561YS02001783        0.01      0.01      0.28      0.01         0.01
  YS02163301YS02001633        0.34      0.34      0.37      0.01         0.01
  YS02163601YS02164001        0.28      0.28      0.38      0.14         0.01
  YS02164001YS02001641        0.27      0.28      0.27      0.40         0.27
  
  
  ***************
  Pumping Summary
  ***************
  
  ---------------------------------------------------------------------------------------------------------
                                                  Min       Avg       Max     Total     Power    % Time Off
                        Percent   Number of      Flow      Flow      Flow    Volume     Usage    Pump Curve
  Pump                 Utilized   Start-Ups       LPS       LPS       LPS  10^6 ltr     Kw-hr    Low   High
  ---------------------------------------------------------------------------------------------------------
  CC-R1                    1.06           1      0.00    683.00    683.00     0.208      3.51    0.0  100.0
  CC-R2                    1.06           1      0.00    683.00    683.00     0.208      3.51    0.0  100.0
  CC-S1                   27.18           8      0.00    200.00    200.00     1.566      8.28    0.0    0.0
  CC-S2                   25.10           8      0.00    200.00    200.00     1.446      7.74    0.0    0.0
  JK-R1                    0.97           2      0.00    347.46   1000.00     0.078      0.47    0.0    0.0
  JK-R2                    0.97           2      0.00    347.46   1000.00     0.078      0.47    0.0    0.0
  JK-S                     0.97           2      0.00    104.30    300.00     0.023      0.44    0.0    0.0
  XR-1                   100.00           1      0.00     95.00     95.00     2.736     68.18    0.0    0.0
  XR-2                   100.00           1      0.00     95.00     95.00     2.736     68.18    0.0    0.0
  XR-3                   100.00           1      0.00     95.00     95.00     2.736     68.18    0.0    0.0
  XR-4                   100.00           1      0.00     95.00     95.00     2.736     68.18    0.0    0.0
  

  Analysis begun on:  Wed Nov  5 16:29:27 2025
  Analysis ended on:  Wed Nov  5 16:29:29 2025
  Total elapsed time: 00:00:02