
  EPA STORM WATER MANAGEMENT MODEL - VERSION 5.2 (Build 5.2.4)
  PYSWMM TOOLKIT API - VERSION v1.0 (2023-11-27)
  ------------------------------------------------------------

  WARNING 04: minimum elevation drop used for Conduit WS02004404WS02004405
  WARNING 03: negative offset ignored for Link YS02001904YS02001907
  
  ****************
  Analysis Options
  ****************
  Flow Units ............... LPS
  Process Models:
    Rainfall/Runoff ........ YES
    RDII ................... NO
    Snowmelt ............... NO
    Groundwater ............ NO
    Flow Routing ........... YES
    Ponding Allowed ........ NO
    Water Quality .......... NO
  Infiltration Method ...... HORTON
  Flow Routing Method ...... DYNWAVE
  Surcharge Method ......... EXTRAN
  Starting Date ............ 08/28/2015 08:00:00
  Ending Date .............. 08/28/2015 16:00:00
  Antecedent Dry Days ...... 8.0
  Report Time Step ......... 00:01:00
  Wet Time Step ............ 00:01:00
  Dry Time Step ............ 00:01:00
  Routing Time Step ........ 30.00 sec
  Variable Time Step ....... YES
  Maximum Trials ........... 8
  Number of Threads ........ 4
  Head Tolerance ........... 0.001500 m
  
  
  **************************        Volume         Depth
  Runoff Quantity Continuity     hectare-m            mm
  **************************     ---------       -------
  Initial LID Storage ......         0.049         1.488
  Total Precipitation ......         1.777        53.568
  Evaporation Loss .........         0.000         0.000
  Infiltration Loss ........         0.076         2.290
  Surface Runoff ...........         1.301        39.220
  Final Storage ............         0.450        13.577
  Continuity Error (%) .....        -0.056
  
  
  **************************        Volume        Volume
  Flow Routing Continuity        hectare-m      10^6 ltr
  **************************     ---------     ---------
  Dry Weather Inflow .......         0.602         6.020
  Wet Weather Inflow .......         1.301        13.010
  Groundwater Inflow .......         0.000         0.000
  RDII Inflow ..............         0.000         0.000
  External Inflow ..........         0.105         1.045
  External Outflow .........         1.496        14.955
  Flooding Loss ............         0.472         4.720
  Evaporation Loss .........         0.000         0.000
  Exfiltration Loss ........         0.000         0.000
  Initial Stored Volume ....         0.303         3.031
  Final Stored Volume ......         0.800         8.000
  Continuity Error (%) .....       -19.773
  
  
  *************************
  Highest Continuity Errors
  *************************
  Node YS02001774 (36.97%)
  Node WS02006256 (-6.23%)
  Node YS02001884 (4.88%)
  Node YS02001583 (-4.80%)
  Node YS02001754 (4.45%)
  
  
  ***************************
  Time-Step Critical Elements
  ***************************
  Link WS02001212WS02001213 (35.04%)
  Link WS02006238WS02006235 (20.87%)
  Link WS02006235WS02006234 (18.09%)
  Link WS02003066WSF200 (6.06%)
  Link YS02006556YS02006558 (5.99%)
  
  
  ********************************
  Highest Flow Instability Indexes
  ********************************
  Link WS02006113WS02006111 (38)
  Link WS02006238WS02006235 (30)
  Link WS02006256WS02006235 (28)
  Link WS02006111WS02006112 (28)
  Link WS02006239WS02006238 (23)
  
  
  *********************************
  Most Frequent Nonconverging Nodes
  *********************************
  Node CC-1 (9.95%)
  Node CC-2 (9.95%)
  Node JK-1 (9.95%)
  Node JK-2 (9.95%)
  Node WSC (9.95%)
  
  
  *************************
  Routing Time Step Summary
  *************************
  Minimum Time Step           :     0.06 sec
  Average Time Step           :     3.80 sec
  Maximum Time Step           :     6.46 sec
  % of Time in Steady State   :     0.00
  Average Iterations per Step :     3.17
  % of Steps Not Converging   :     9.95
  Time Step Frequencies       :
     30.000 - 13.228 sec      :     0.00 %
     13.228 -  5.833 sec      :    33.66 %
      5.833 -  2.572 sec      :    37.56 %
      2.572 -  1.134 sec      :    21.40 %
      1.134 -  0.500 sec      :     7.37 %
  
  
  ***************************
  Subcatchment Runoff Summary
  ***************************
  
  ------------------------------------------------------------------------------------------------------------------------------
                            Total      Total      Total      Total     Imperv       Perv      Total       Total     Peak  Runoff
                           Precip      Runon       Evap      Infil     Runoff     Runoff     Runoff      Runoff   Runoff   Coeff
  Subcatchment                 mm         mm         mm         mm         mm         mm         mm    10^6 ltr      LPS
  ------------------------------------------------------------------------------------------------------------------------------
  sub60                     53.57       0.00       0.00       1.34      35.45       3.62      39.07        0.51   369.40   0.729
  sub61                     53.57       0.00       0.00       2.07      35.42       5.37      40.80        0.75   540.06   0.762
  sub62                     53.57       0.00       0.00       0.91      37.76       2.46      40.22        1.10   741.79   0.751
  sub63                     53.57       0.00       0.00       3.83      30.34       8.89      39.23        0.89   619.02   0.732
  sub64                     53.57       0.00       0.00       1.83      34.54       4.43      38.97        0.94   607.53   0.728
  sub65                     53.57       0.00       0.00       1.68      37.28       4.04      41.32        1.14   709.35   0.771
  sub66                     53.57       0.00       0.00       4.51      29.33       7.81      37.13        1.73   935.82   0.693
  sub67                     53.57       0.00       0.00       0.90      38.72       2.55      41.27        0.77   568.05   0.770
  sub68                     53.57       0.00       0.00       1.59      34.19       4.12      38.32        1.05   738.58   0.715
  sub69                     53.57       0.00       0.00       1.46      36.01       4.91      40.91        1.51   916.86   0.764
  sub70                     53.57       0.00       0.00       4.97      28.84       9.94      38.78        1.12   540.83   0.724
  sub71                     53.57       0.00       0.00       0.85      34.30       2.22      36.52        0.95   612.88   0.682
  sub72                     53.57       0.00       0.00       0.81      37.04       2.06      39.10        0.54   316.83   0.730
  

  ***********************
  LID Performance Summary
  ***********************

  --------------------------------------------------------------------------------------------------------------------
                                         Total      Evap     Infil   Surface    Drain    Initial     Final  Continuity
                                        Inflow      Loss      Loss   Outflow   Outflow   Storage   Storage       Error
  Subcatchment      LID Control             mm        mm        mm        mm        mm        mm        mm           %
  --------------------------------------------------------------------------------------------------------------------
  sub60             GreenRoof            53.57      0.00      0.00      0.00      0.00      7.05     60.72       -0.17
  sub61             GreenRoof            53.57      0.00      0.00      0.00      0.00      7.05     60.72       -0.17
  sub62             GreenRoof            53.57      0.00      0.00      0.00      0.00      7.05     60.72       -0.17
  sub63             GreenRoof            53.57      0.00      0.00      0.00      0.00      7.05     60.72       -0.17
  sub64             GreenRoof            53.57      0.00      0.00      0.00      0.00      7.05     60.72       -0.17
  sub65             GreenRoof            53.57      0.00      0.00      0.00      0.00      7.05     60.72       -0.17
  sub66             GreenRoof            53.57      0.00      0.00      0.00      0.00      7.05     60.72       -0.17
  sub67             GreenRoof            53.57      0.00      0.00      0.00      0.00      7.05     60.72       -0.17
  sub68             GreenRoof            53.57      0.00      0.00      0.00      0.00      7.05     60.72       -0.17
  sub69             GreenRoof            53.57      0.00      0.00      0.00      0.00      7.05     60.72       -0.17
  sub70             GreenRoof            53.57      0.00      0.00      0.00      0.00      7.05     60.72       -0.17
  sub71             GreenRoof            53.57      0.00      0.00      0.00      0.00      7.05     60.72       -0.17
  sub72             GreenRoof            53.57      0.00      0.00      0.00      0.00      7.05     60.72       -0.17
  
  ******************
  Node Depth Summary
  ******************
  
  ---------------------------------------------------------------------------------
                                 Average  Maximum  Maximum  Time of Max    Reported
                                   Depth    Depth      HGL   Occurrence   Max Depth
  Node                 Type       Meters   Meters   Meters  days hr:min      Meters
  ---------------------------------------------------------------------------------
  WS02001211           JUNCTION     0.76     0.78     5.62     0  02:47        0.78
  WS02001212           JUNCTION     0.46     0.49     5.55     0  02:47        0.49
  WS02001213           JUNCTION     0.68     0.73     5.49     0  02:46        0.73
  WS02003059           JUNCTION     0.73     0.78     5.47     0  02:46        0.78
  WS02003060           JUNCTION     0.38     0.47     5.41     0  02:45        0.47
  WS02003066           JUNCTION     0.16     0.27     5.82     0  02:44        0.27
  WS02003067           JUNCTION     0.43     0.65     5.97     0  02:44        0.65
  WS02003069           JUNCTION     0.42     0.54     5.12     0  02:46        0.54
  WS02003072           JUNCTION     0.49     0.60     4.97     0  02:46        0.60
  WS02003073           JUNCTION     0.29     0.37     4.43     0  02:47        0.37
  WS02004138           JUNCTION     0.19     0.20     7.45     0  00:00        0.19
  WS02004139           JUNCTION     0.71     0.73     5.64     0  02:48        0.73
  WS02004401           JUNCTION     0.51     0.75     6.75     0  02:41        0.75
  WS02004402           JUNCTION     0.54     0.78     6.74     0  03:01        0.78
  WS02004403           JUNCTION     0.57     0.80     6.73     0  02:41        0.80
  WS02004404           JUNCTION     0.64     0.88     6.73     0  03:00        0.88
  WS02004405           JUNCTION     0.64     0.88     6.73     0  03:00        0.88
  WS02004406           JUNCTION     0.65     0.88     6.71     0  02:42        0.88
  WS02004407           JUNCTION     0.13     0.26     6.57     0  02:42        0.26
  WS02004409           JUNCTION     0.30     0.58     6.35     0  02:43        0.58
  WS02004410           JUNCTION     0.33     0.59     6.31     0  02:43        0.59
  WS02004411           JUNCTION     0.36     0.61     6.29     0  02:43        0.61
  WS02004412           JUNCTION     0.38     0.62     6.26     0  02:44        0.62
  WS02004413           JUNCTION     0.53     0.79     6.26     0  02:44        0.79
  WS02006109           JUNCTION     0.56     0.84     7.45     0  02:23        0.83
  WS02006110           JUNCTION     0.57     0.82     7.41     0  02:40        0.82
  WS02006111           JUNCTION     0.14     0.25     6.96     0  02:13        0.25
  WS02006112           JUNCTION     0.66     0.93     6.82     0  02:58        0.93
  WS02006113           JUNCTION     0.21     0.39     7.29     0  02:19        0.39
  WS02006115           JUNCTION     0.39     0.65     6.78     0  02:58        0.65
  WS02006116           JUNCTION     0.48     0.73     6.77     0  02:59        0.73
  WS02006228           JUNCTION     0.55     0.85     7.50     0  02:23        0.85
  WS02006229           JUNCTION     0.52     0.83     7.52     0  02:22        0.82
  WS02006230           JUNCTION     0.50     0.86     7.60     0  02:48        0.86
  WS02006231           JUNCTION     0.30     0.60     7.72     0  02:39        0.60
  WS02006232           JUNCTION     0.42     0.75     7.79     0  03:07        0.75
  WS02006234           JUNCTION     0.34     0.71     7.87     0  02:22        0.71
  WS02006235           JUNCTION     0.37     0.76     7.93     0  02:53        0.76
  WS02006238           JUNCTION     0.40     0.81     7.95     0  02:15        0.80
  WS02006239           JUNCTION     0.37     0.81     8.02     0  03:13        0.80
  WS02006240           JUNCTION     0.36     0.79     8.09     0  02:24        0.79
  WS02006242           JUNCTION     0.42     0.91     8.18     0  02:24        0.90
  WS02006243           JUNCTION     0.36     0.85     8.27     0  02:22        0.84
  WS02006245           JUNCTION     0.37     0.86     8.34     0  02:47        0.85
  WS02006247           JUNCTION     0.38     0.89     8.39     0  02:19        0.89
  WS02006248           JUNCTION     0.36     0.86     8.45     0  02:20        0.86
  WS02006249           JUNCTION     0.38     0.90     8.50     0  02:44        0.90
  WS02006251           JUNCTION     0.38     0.91     8.58     0  02:25        0.91
  WS02006252           JUNCTION     0.26     1.50     9.74     0  00:00        0.59
  WS02006256           JUNCTION     0.61     2.35     9.28     0  00:00        2.35
  WSF200               JUNCTION     0.13     0.25     5.48     0  02:45        0.25
  YS02001580           JUNCTION     0.08     1.05     9.59     0  02:17        0.77
  YS02001583           JUNCTION     0.10     1.14     9.64     0  02:17        0.82
  YS02001586           JUNCTION     0.18     1.13     9.30     0  02:17        1.13
  YS02001590           JUNCTION     0.28     1.38     9.24     0  02:17        1.37
  YS02001593           JUNCTION     0.22     1.31     9.17     0  02:17        1.29
  YS02001596           JUNCTION     0.42     1.68     9.10     0  02:17        1.65
  YS02001600           JUNCTION     0.63     1.87     9.00     0  02:17        1.86
  YS02001601           JUNCTION     0.87     2.06     8.90     0  02:16        2.06
  YS02001602           JUNCTION     0.79     1.87     8.77     0  02:17        1.87
  YS02001605           JUNCTION     0.75     1.78     8.68     0  02:17        1.78
  YS02001607           JUNCTION     0.75     1.68     8.53     0  02:17        1.68
  YS02001610           JUNCTION     0.79     1.68     8.48     0  02:17        1.68
  YS02001613           JUNCTION     0.75     1.70     8.54     0  02:17        1.70
  YS02001616           JUNCTION     0.68     1.61     8.52     0  02:17        1.61
  YS02001619           JUNCTION     0.67     1.61     8.54     0  02:17        1.61
  YS02001622           JUNCTION     0.67     1.56     8.46     0  02:23        1.56
  YS02001625           JUNCTION     0.92     1.78     8.38     0  02:20        1.78
  YS02001629           JUNCTION     0.93     1.85     8.40     0  02:21        1.85
  YS02001633           JUNCTION     1.00     2.01     8.47     0  02:23        2.00
  YS02001641           JUNCTION     0.99     1.96     8.39     0  02:23        1.96
  YS02001644           JUNCTION     0.98     1.92     8.35     0  02:23        1.92
  YS02001647           JUNCTION     0.79     1.72     8.33     0  02:25        1.72
  YS02001649           JUNCTION     0.93     1.91     8.30     0  02:25        1.91
  YS02001652           JUNCTION     0.77     1.75     8.35     0  02:25        1.75
  YS02001655           JUNCTION     0.59     1.61     8.46     0  02:22        1.53
  YS02001658           JUNCTION     0.40     1.52     8.67     0  02:22        1.26
  YS02001661           JUNCTION     0.26     1.06     8.47     0  02:24        0.99
  YS02001664           JUNCTION     0.06     0.49     8.41     0  02:24        0.47
  YS02001745           JUNCTION     0.15     0.69     8.21     0  02:24        0.67
  YS02001748           JUNCTION     0.43     1.31     8.39     0  02:23        1.11
  YS02001751           JUNCTION     0.56     1.41     8.29     0  02:23        1.30
  YS02001754           JUNCTION     0.74     1.62     8.23     0  02:23        1.57
  YS02001757           JUNCTION     1.01     1.93     8.19     0  02:25        1.92
  YS02001759           JUNCTION     0.93     1.91     8.27     0  02:25        1.91
  YS02001762           JUNCTION     0.90     1.89     8.29     0  02:25        1.89
  YS02001765           JUNCTION     0.86     1.87     8.32     0  02:25        1.86
  YS02001767           JUNCTION     0.84     1.85     8.34     0  02:25        1.85
  YS02001770           JUNCTION     0.85     1.90     8.40     0  02:23        1.89
  YS02001774           JUNCTION     0.91     1.98     8.40     0  02:23        1.96
  YS02001779           JUNCTION     0.68     1.68     8.37     0  02:21        1.68
  YS02001783           JUNCTION     0.46     1.53     7.67     0  02:20        1.48
  YS02001784           JUNCTION     0.51     1.48     7.55     0  02:20        1.42
  YS02001786           JUNCTION     0.51     1.32     7.35     0  02:20        1.26
  YS02001788           JUNCTION     0.51     1.18     7.16     0  02:20        1.13
  YS02001790           JUNCTION     0.73     1.34     6.98     0  02:20        1.30
  YS02001791           JUNCTION     0.82     1.30     6.77     0  02:11        1.27
  YS02001793           JUNCTION     1.24     1.84     6.68     0  02:11        1.80
  YS02001882           JUNCTION     0.30     1.66     8.37     0  02:20        1.64
  YS02001884           JUNCTION     0.38     1.75     8.36     0  02:20        1.74
  YS02001887           JUNCTION     0.46     1.82     8.36     0  02:22        1.82
  YS02001890           JUNCTION     0.49     1.81     8.32     0  02:20        1.81
  YS02001895           JUNCTION     0.27     1.57     8.32     0  02:21        1.56
  YS02001898           JUNCTION     0.27     1.58     8.31     0  02:20        1.55
  YS02001901           JUNCTION     0.38     1.69     8.30     0  02:20        1.67
  YS02001904           JUNCTION     0.36     1.65     8.28     0  02:20        1.63
  YS02001907           JUNCTION     0.67     1.96     8.25     0  02:20        1.96
  YS02001910           JUNCTION     0.47     1.95     8.46     0  02:21        1.85
  YS02001915           JUNCTION     0.30     1.90     8.62     0  02:21        1.71
  YS02001918           JUNCTION     0.15     1.81     8.88     0  02:21        1.38
  YS02001920           JUNCTION     0.23     2.09     9.10     0  02:21        1.44
  YS02001923           JUNCTION     0.11     2.00     9.26     0  02:21        1.21
  YS02001926           JUNCTION     0.15     1.90     9.35     0  02:21        1.09
  YS02001929           JUNCTION     0.08     1.78     9.47     0  02:21        0.92
  YS02006553           JUNCTION     0.68     1.98     8.26     0  02:20        1.96
  YS02006556           JUNCTION     0.65     1.95     8.26     0  02:23        1.95
  YS02006558           JUNCTION     0.69     2.00     8.26     0  02:23        1.98
  YS02006561           JUNCTION     0.16     1.14     7.80     0  02:20        1.10
  YS02163301           JUNCTION     0.95     1.92     8.43     0  02:23        1.91
  YS02163601           JUNCTION     1.04     2.04     8.44     0  02:23        2.03
  YS02164001           JUNCTION     0.97     1.96     8.41     0  02:23        1.96
  CC-1                 OUTFALL      0.00     0.00     0.00     0  00:00        0.00
  CC-2                 OUTFALL      0.00     0.00     0.00     0  00:00        0.00
  JK-1                 OUTFALL      0.00     0.00     0.00     0  00:00        0.00
  JK-2                 OUTFALL      0.00     0.00     0.00     0  00:00        0.00
  WSC                  OUTFALL      0.29     0.37     1.04     0  02:47        0.37
  CC-storage           STORAGE      1.57     2.21     7.71     0  07:53        2.21
  JK-storage           STORAGE      4.28     5.80     6.60     0  02:09        5.80
  XR-storage           STORAGE      0.31     5.00     3.00     0  00:00        4.91
  
  
  *******************
  Node Inflow Summary
  *******************
  
  -------------------------------------------------------------------------------------------------
                                  Maximum  Maximum                  Lateral       Total        Flow
                                  Lateral    Total  Time of Max      Inflow      Inflow     Balance
                                   Inflow   Inflow   Occurrence      Volume      Volume       Error
  Node                 Type           LPS      LPS  days hr:min    10^6 ltr    10^6 ltr     Percent
  -------------------------------------------------------------------------------------------------
  WS02001211           JUNCTION      7.35   389.13     0  03:38       0.212        11.1       0.348
  WS02001212           JUNCTION      0.00   390.85     0  03:41           0        11.1       0.207
  WS02001213           JUNCTION      0.00   392.60     0  03:40           0        11.1       0.238
  WS02003059           JUNCTION      0.00   395.65     0  03:40           0          11       0.328
  WS02003060           JUNCTION     16.53   816.12     0  02:45       0.476        14.4       0.150
  WS02003066           JUNCTION      0.00   411.93     0  02:44           0        2.96       0.040
  WS02003067           JUNCTION      0.00   411.92     0  02:44           0        2.96       0.135
  WS02003069           JUNCTION      0.32   816.40     0  02:45     0.00922        14.4       0.158
  WS02003072           JUNCTION      0.00   816.38     0  02:46           0        14.4       0.206
  WS02003073           JUNCTION      1.82   818.18     0  02:46      0.0524        14.4       0.221
  WS02004138           JUNCTION      0.00   380.00     0  00:00           0        10.9       0.059
  WS02004139           JUNCTION      0.32   395.52     0  00:00     0.00924        10.9       0.407
  WS02004401           JUNCTION      0.00   412.02     0  03:01           0        3.06       0.324
  WS02004402           JUNCTION      0.00   412.01     0  02:59           0        3.05       0.330
  WS02004403           JUNCTION      0.00   411.99     0  03:01           0        3.04       0.324
  WS02004404           JUNCTION      0.16   412.18     0  03:01     0.00467        3.04       0.271
  WS02004405           JUNCTION      0.04   412.18     0  03:01      0.0011        3.03       0.404
  WS02004406           JUNCTION      0.00   412.18     0  02:42           0        3.02       0.677
  WS02004407           JUNCTION      0.00   412.05     0  02:42           0           3       0.030
  WS02004409           JUNCTION      0.00   412.01     0  02:42           0        2.99       0.072
  WS02004410           JUNCTION      0.00   412.01     0  02:43           0        2.99       0.130
  WS02004411           JUNCTION      0.00   411.99     0  02:43           0        2.99       0.171
  WS02004412           JUNCTION      0.00   411.98     0  02:44           0        2.98       0.235
  WS02004413           JUNCTION      0.00   412.00     0  02:44           0        2.98       0.422
  WS02006109           JUNCTION      1.23   412.61     0  02:23      0.0354         3.1       0.191
  WS02006110           JUNCTION      0.00   411.94     0  02:23           0         3.1       0.200
  WS02006111           JUNCTION      0.00   423.42     0  02:19           0        3.09       0.027
  WS02006112           JUNCTION      0.00   413.97     0  02:13           0        3.09       0.564
  WS02006113           JUNCTION      0.00   411.96     0  02:14           0        3.09       0.044
  WS02006115           JUNCTION      0.00   412.28     0  03:00           0        3.07       0.202
  WS02006116           JUNCTION      0.00   412.16     0  02:59           0        3.06       0.148
  WS02006228           JUNCTION      0.00   412.51     0  02:23           0        3.07       0.054
  WS02006229           JUNCTION      0.00   410.84     0  02:23           0        3.07       0.156
  WS02006230           JUNCTION     10.28   410.54     0  02:39       0.296        3.08       0.180
  WS02006231           JUNCTION      0.00   400.40     0  02:39           0        2.78      -0.085
  WS02006232           JUNCTION      0.00   400.40     0  02:22           0        2.79       0.296
  WS02006234           JUNCTION      0.00   401.45     0  02:51           0        2.78      -0.197
  WS02006235           JUNCTION      0.00   402.02     0  02:53           0         2.8       0.264
  WS02006238           JUNCTION      0.00   401.41     0  02:53           0        2.77      -0.374
  WS02006239           JUNCTION      0.00   401.15     0  02:29           0        2.76      -0.249
  WS02006240           JUNCTION      0.00   401.05     0  02:17           0        2.75      -0.108
  WS02006242           JUNCTION      0.00   401.66     0  02:57           0        2.75      -0.038
  WS02006243           JUNCTION      0.00   400.85     0  02:44           0        2.75      -0.082
  WS02006245           JUNCTION      0.00   403.21     0  02:21           0        2.76       0.513
  WS02006247           JUNCTION      0.00   401.14     0  02:27           0        2.76       0.015
  WS02006248           JUNCTION      0.00   401.65     0  02:25           0        2.76       0.122
  WS02006249           JUNCTION      0.00   462.37     0  01:46           0        2.78       0.356
  WS02006251           JUNCTION      0.08   402.91     0  01:45     0.00222        2.78       0.003
  WS02006252           JUNCTION      0.00   400.00     0  00:00           0        2.77      -0.059
  WS02006256           JUNCTION      0.00   300.00     0  00:00           0      0.0242      -5.864
  WSF200               JUNCTION      0.00   411.92     0  02:44           0        2.96       0.018
  YS02001580           JUNCTION      0.00    79.28     0  02:17           0     0.00385       0.025
  YS02001583           JUNCTION      0.00   147.61     0  02:17           0      0.0151      -4.584
  YS02001586           JUNCTION    540.83   540.86     0  02:26        1.12        1.13       0.096
  YS02001590           JUNCTION      0.00   318.17     0  02:24           0           1       0.017
  YS02001593           JUNCTION      0.00   318.31     0  02:22           0           1       0.052
  YS02001596           JUNCTION      0.00   318.17     0  02:24           0           1       0.232
  YS02001600           JUNCTION      0.00   318.17     0  02:24           0       0.999       0.735
  YS02001601           JUNCTION    916.86  1234.65     0  02:25        1.51        2.51       0.358
  YS02001602           JUNCTION      0.00   502.50     0  02:16           0        1.79       0.522
  YS02001605           JUNCTION      0.00   502.96     0  02:16           0        1.71       0.818
  YS02001607           JUNCTION      0.00   502.89     0  02:16           0         1.7       1.198
  YS02001610           JUNCTION      0.00   498.03     0  02:15           0         1.7       1.305
  YS02001613           JUNCTION      0.00   497.06     0  02:16           0        1.44       1.582
  YS02001616           JUNCTION      0.00   501.01     0  02:16           0        1.42       1.413
  YS02001619           JUNCTION    935.82   935.82     0  02:26        1.73        3.12       0.628
  YS02001622           JUNCTION      0.00   932.87     0  02:20           0        3.08       0.889
  YS02001625           JUNCTION      0.00  1021.31     0  02:26           0        3.09       1.463
  YS02001629           JUNCTION      0.00   932.16     0  02:20           0        2.57       0.839
  YS02001633           JUNCTION    709.55  1373.26     0  02:20        1.14        3.63       0.896
  YS02001641           JUNCTION      0.00  1369.07     0  02:20           0        3.52       0.610
  YS02001644           JUNCTION    607.57  1745.41     0  02:20       0.937        4.43       0.589
  YS02001647           JUNCTION      0.00  1745.90     0  02:20           0        4.34       0.652
  YS02001649           JUNCTION      0.00  1954.93     0  02:20           0        5.16       0.726
  YS02001652           JUNCTION      0.00   673.02     0  02:25           0       0.875       2.653
  YS02001655           JUNCTION      0.15   671.52     0  02:25     0.00443       0.895       2.492
  YS02001658           JUNCTION      0.00   668.89     0  02:25           0       0.902       1.472
  YS02001661           JUNCTION      0.00   804.53     0  02:24           0       0.899       0.533
  YS02001664           JUNCTION    619.02   619.02     0  02:25       0.891       0.891      -0.029
  YS02001745           JUNCTION    369.41   369.41     0  02:25       0.514       0.551       0.734
  YS02001748           JUNCTION      0.04   461.42     0  02:23      0.0013       0.567       2.039
  YS02001751           JUNCTION      0.01   384.65     0  02:24    0.000317       0.536       3.961
  YS02001754           JUNCTION      0.26   386.27     0  02:24     0.00749       0.526       4.655
  YS02001757           JUNCTION      0.00  3167.35     0  02:24           0        7.29       1.296
  YS02001759           JUNCTION    540.10  1242.53     0  02:25        0.75        1.73       1.343
  YS02001762           JUNCTION      0.00   720.58     0  02:26           0       0.998       2.144
  YS02001765           JUNCTION      0.00   720.56     0  02:26           0        1.02       2.462
  YS02001767           JUNCTION      0.54   719.58     0  02:26      0.0154        1.06       3.459
  YS02001770           JUNCTION    741.95   741.95     0  02:25        1.11        1.13       2.853
  YS02001774           JUNCTION      0.00   261.48     0  02:21           0      0.0686      58.664
  YS02001779           JUNCTION      0.01   248.02     0  02:21    0.000144      0.0286      92.599
  YS02001783           JUNCTION      0.00   975.24     0  02:23           0        2.84       0.246
  YS02001784           JUNCTION      1.06   976.43     0  02:25      0.0305        2.86       0.366
  YS02001786           JUNCTION      0.06   976.77     0  02:24     0.00162        2.85       0.468
  YS02001788           JUNCTION      0.07   976.68     0  02:24     0.00204        2.84       0.481
  YS02001790           JUNCTION      0.15   977.48     0  02:24     0.00446        2.83       0.558
  YS02001791           JUNCTION      0.00   977.81     0  02:24           0        2.81       0.528
  YS02001793           JUNCTION      0.00   978.09     0  02:24           0         2.8       0.568
  YS02001882           JUNCTION      0.00    35.73     0  02:18           0      0.0123       4.268
  YS02001884           JUNCTION      0.00    76.29     0  02:18           0      0.0481       5.134
  YS02001887           JUNCTION    568.50   568.53     0  02:25       0.781       0.814       0.519
  YS02001890           JUNCTION      0.00   569.05     0  02:25           0       0.774       0.628
  YS02001895           JUNCTION      0.00   513.39     0  02:26           0        0.76       0.167
  YS02001898           JUNCTION      0.00   513.97     0  02:26           0       0.759       0.014
  YS02001901           JUNCTION      0.00   514.13     0  02:26           0       0.761       0.401
  YS02001904           JUNCTION      0.00   513.04     0  02:26           0       0.765       0.343
  YS02001907           JUNCTION      0.00  1497.98     0  02:25           0        2.34       0.765
  YS02001910           JUNCTION      0.00   986.00     0  02:25           0        1.58       0.450
  YS02001915           JUNCTION    612.90   984.99     0  02:25       0.956        1.62       0.095
  YS02001918           JUNCTION      0.00   448.02     0  02:22           0       0.692       0.019
  YS02001920           JUNCTION      2.87   446.77     0  02:22      0.0827       0.675       0.146
  YS02001923           JUNCTION      0.04   427.16     0  02:21     0.00109       0.575      -0.285
  YS02001926           JUNCTION      0.05   563.58     0  02:21      0.0015       0.553      -0.187
  YS02001929           JUNCTION    316.83   353.35     0  02:21       0.538        0.54      -0.107
  YS02006553           JUNCTION      0.00   683.90     0  02:35           0         1.8       0.646
  YS02006556           JUNCTION      0.00   683.35     0  02:35           0        1.81       0.437
  YS02006558           JUNCTION    739.46   976.80     0  02:24        1.08        2.86       0.118
  YS02006561           JUNCTION      0.00   975.34     0  02:23           0        2.84      -0.016
  YS02163301           JUNCTION      0.00   933.19     0  02:20           0        2.54       0.956
  YS02163601           JUNCTION      0.11  1373.08     0  02:20     0.00317        3.56       0.849
  YS02164001           JUNCTION      0.00  1371.64     0  02:20           0        3.53       0.573
  CC-1                 OUTFALL       0.00   683.00     0  00:00           0       0.208       0.000
  CC-2                 OUTFALL       0.00   683.00     0  00:00           0       0.208       0.000
  JK-1                 OUTFALL       0.00  1000.00     0  00:00           0      0.0791       0.000
  JK-2                 OUTFALL       0.00  1000.00     0  00:00           0      0.0791       0.000
  WSC                  OUTFALL       0.00   818.17     0  02:47           0        14.4       0.000
  CC-storage           STORAGE       0.00  3168.64     0  02:24           0         9.4       0.455
  JK-storage           STORAGE       0.00   977.80     0  02:24           0        2.93       0.558
  XR-storage           STORAGE     200.00   200.00     0  00:00        5.76        6.36     -41.886
  
  
  **********************
  Node Surcharge Summary
  **********************
  
  Surcharging occurs when water rises above the top of the highest conduit.
  ---------------------------------------------------------------------
                                               Max. Height   Min. Depth
                                   Hours       Above Crown    Below Rim
  Node                 Type      Surcharged         Meters       Meters
  ---------------------------------------------------------------------
  WS02006109           JUNCTION        1.44          0.017        1.803
  WS02006228           JUNCTION        1.43          0.019        2.181
  WS02006229           JUNCTION        1.45          0.029        2.421
  WS02006232           JUNCTION        1.52          0.050        1.430
  WS02006235           JUNCTION        1.45          0.054        1.236
  WS02006238           JUNCTION        1.48          0.088        1.342
  WS02006239           JUNCTION        1.46          0.066        1.224
  WS02006240           JUNCTION        1.47          0.082        1.308
  WS02006242           JUNCTION        1.56          0.177        0.643
  WS02006243           JUNCTION        1.48          0.136        0.634
  WS02006245           JUNCTION        1.48          0.146        0.704
  WS02006247           JUNCTION        1.50          0.180        0.580
  WS02006248           JUNCTION        1.48          0.139        0.241
  WS02006249           JUNCTION        1.49          0.198        0.192
  WS02006252           JUNCTION        1.92          1.100        0.000
  WS02006256           JUNCTION        3.01          2.050        0.000
  YS02001580           JUNCTION        0.39          0.450        0.000
  YS02001583           JUNCTION        0.40          0.500        0.000
  YS02001586           JUNCTION        0.52          0.510        0.000
  YS02001590           JUNCTION        0.60          0.731        0.019
  YS02001593           JUNCTION        0.60          0.692        0.148
  YS02001596           JUNCTION        0.73          0.947        0.123
  YS02001600           JUNCTION        0.98          1.190        0.000
  YS02001601           JUNCTION        6.04          1.440        0.000
  YS02001602           JUNCTION        5.98          1.270        0.000
  YS02001605           JUNCTION        5.95          1.180        0.000
  YS02001607           JUNCTION        0.70          0.680        0.000
  YS02001610           JUNCTION        0.79          0.680        0.000
  YS02001613           JUNCTION        0.71          0.700        0.000
  YS02001616           JUNCTION        0.63          0.610        0.000
  YS02001619           JUNCTION        0.62          0.610        0.000
  YS02001622           JUNCTION        0.63          0.560        0.060
  YS02001625           JUNCTION        5.77          0.780        0.000
  YS02001629           JUNCTION        0.57          0.470        0.000
  YS02001633           JUNCTION        5.78          0.991        0.069
  YS02001641           JUNCTION        5.75          0.957        0.143
  YS02001644           JUNCTION        5.73          0.920        0.000
  YS02001647           JUNCTION        5.66          0.720        0.180
  YS02001649           JUNCTION        5.66          0.914        0.136
  YS02001652           JUNCTION        5.64          0.721        0.409
  YS02001655           JUNCTION        0.30          0.606        0.594
  YS02001658           JUNCTION        0.10          0.524        0.776
  YS02001748           JUNCTION        0.03          0.235        0.955
  YS02001751           JUNCTION        0.16          0.407        0.793
  YS02001754           JUNCTION        5.34          0.572        0.578
  YS02001757           JUNCTION        5.66          0.926        0.284
  YS02001759           JUNCTION        5.65          0.908        0.302
  YS02001762           JUNCTION        5.65          0.894        0.256
  YS02001765           JUNCTION        5.65          0.868        0.232
  YS02001767           JUNCTION        5.65          0.853        0.177
  YS02001770           JUNCTION        5.64          0.875        0.045
  YS02001774           JUNCTION        5.65          0.976        0.074
  YS02001779           JUNCTION        4.56          0.680        0.000
  YS02001783           JUNCTION        0.57          0.733        0.867
  YS02001784           JUNCTION        0.60          0.679        0.811
  YS02001786           JUNCTION        0.57          0.521        0.909
  YS02001788           JUNCTION        0.57          0.382        1.098
  YS02001790           JUNCTION        5.84          0.535        0.622
  YS02001791           JUNCTION        5.86          0.500        1.420
  YS02001793           JUNCTION        5.88          0.845        1.755
  YS02001882           JUNCTION        0.35          0.657        0.173
  YS02001884           JUNCTION        0.36          0.688        0.182
  YS02001887           JUNCTION        0.38          0.768        0.182
  YS02001890           JUNCTION        0.39          0.760        0.000
  YS02001895           JUNCTION        0.34          0.572        0.178
  YS02001898           JUNCTION        0.33          0.547        0.193
  YS02001901           JUNCTION        0.37          0.689        0.181
  YS02001904           JUNCTION        0.36          0.647        0.203
  YS02001907           JUNCTION        0.58          0.950        0.000
  YS02001910           JUNCTION        0.42          0.952        0.148
  YS02001915           JUNCTION        0.34          0.898        0.102
  YS02001918           JUNCTION        0.26          0.810        0.000
  YS02001920           JUNCTION        0.28          1.093        0.047
  YS02001923           JUNCTION        0.01          0.789        0.031
  YS02001926           JUNCTION        0.02          0.900        0.000
  YS02001929           JUNCTION        0.01          0.780        0.000
  YS02006553           JUNCTION        0.59          0.977        0.213
  YS02006556           JUNCTION        0.50          0.912        0.438
  YS02006558           JUNCTION        0.49          0.898        0.502
  YS02006561           JUNCTION        0.30          0.337        0.813
  YS02163301           JUNCTION        5.77          0.916        0.114
  YS02163601           JUNCTION        5.79          1.041        0.039
  YS02164001           JUNCTION        5.75          0.956        0.144
  
  
  *********************
  Node Flooding Summary
  *********************
  
  Flooding refers to all water that overflows a node, whether it ponds or not.
  --------------------------------------------------------------------------
                                                             Total   Maximum
                                 Maximum   Time of Max       Flood    Ponded
                        Hours       Rate    Occurrence      Volume     Depth
  Node                 Flooded       LPS   days hr:min    10^6 ltr    Meters
  --------------------------------------------------------------------------
  WS02006252              0.01    245.63      0  00:00       0.000     0.000
  WS02006256              0.02    293.19      0  00:00       0.005     0.000
  YS02001580              0.01      5.78      0  02:17       0.000     0.000
  YS02001583              0.01     48.59      0  02:17       0.000     0.000
  YS02001586              0.29    223.30      0  02:26       0.119     0.000
  YS02001600              0.01      2.19      0  02:17       0.000     0.000
  YS02001601              0.46    836.64      0  02:25       0.703     0.000
  YS02001602              0.38     62.08      0  02:25       0.074     0.000
  YS02001605              0.01      2.15      0  02:17       0.000     0.000
  YS02001607              0.01      4.37      0  02:17       0.000     0.000
  YS02001610              0.31    416.99      0  02:26       0.253     0.000
  YS02001613              0.01      6.35      0  02:17       0.000     0.000
  YS02001616              0.01      7.57      0  02:17       0.000     0.000
  YS02001619              0.01      6.48      0  02:17       0.000     0.000
  YS02001625              0.29   1021.24      0  02:26       0.514     0.000
  YS02001629              0.06     94.82      0  02:24       0.011     0.000
  YS02001644              0.07    363.56      0  02:25       0.055     0.000
  YS02001779              0.04    154.20      0  02:21       0.004     0.000
  YS02001890              0.08     61.56      0  02:25       0.009     0.000
  YS02001907              0.21   1239.32      0  02:25       0.527     0.000
  YS02001918              0.01    113.46      0  02:21       0.001     0.000
  YS02001926              0.01    153.26      0  02:21       0.001     0.000
  YS02001929              0.01     87.31      0  02:21       0.000     0.000
  JK-storage              5.83    977.29      0  02:24       2.445     0.000
  
  
  **********************
  Storage Volume Summary
  **********************
  
  ------------------------------------------------------------------------------------------------
                         Average    Avg   Evap  Exfil     Maximum    Max    Time of Max    Maximum
                          Volume   Pcnt   Pcnt   Pcnt      Volume   Pcnt     Occurrence    Outflow
  Storage Unit           1000 m³   Full   Loss   Loss     1000 m³   Full    days hr:min        LPS
  ------------------------------------------------------------------------------------------------
  CC-storage               4.364   68.1    0.0    0.0       6.161   96.1       0  07:53    1783.53
  JK-storage               0.215   73.8    0.0    0.0       0.291  100.0       0  02:09    2300.00
  XR-storage               0.037    2.5    0.0    0.0       0.600   41.7       0  00:00     380.00
  
  
  ***********************
  Outfall Loading Summary
  ***********************
  
  -----------------------------------------------------------
                         Flow       Avg       Max       Total
                         Freq      Flow      Flow      Volume
  Outfall Node           Pcnt       LPS       LPS    10^6 ltr
  -----------------------------------------------------------
  CC-1                   1.35    683.00    683.00       0.208
  CC-2                   1.35    683.00    683.00       0.208
  JK-1                   1.25    347.46   1000.00       0.079
  JK-2                   1.25    347.46   1000.00       0.079
  WSC                   99.92    557.90    818.17      14.380
  -----------------------------------------------------------
  System                21.02   2618.82   3366.35      14.955
  
  
  ********************
  Link Flow Summary
  ********************
  
  -----------------------------------------------------------------------------
                                 Maximum  Time of Max   Maximum    Max/    Max/
                                  |Flow|   Occurrence   |Veloc|    Full    Full
  Link                 Type          LPS  days hr:min     m/sec    Flow   Depth
  -----------------------------------------------------------------------------
  1                    CONDUIT    818.17     0  02:47      3.15    0.28    0.37
  WS02001211WS02001212 CONDUIT    390.85     0  03:41      0.78    0.30    0.64
  WS02001212WS02001213 CONDUIT    392.60     0  03:40      1.32    0.61    0.45
  WS02001213WS02003059 CONDUIT    395.65     0  03:40      0.85    0.65    0.75
  WS02003059WS02003060 CONDUIT    399.94     0  03:40      0.95    0.26    0.63
  WS02003060WS02003069 CONDUIT    816.08     0  02:45      1.80    0.32    0.42
  WS02003066WSF200     CONDUIT    411.92     0  02:44      2.69    0.07    0.19
  WS02003067WS02003066 CONDUIT    411.93     0  02:44      1.04    0.13    0.38
  WS02003069WS02003072 CONDUIT    816.38     0  02:46      1.55    0.39    0.47
  WS02003072WS02003073 CONDUIT    816.36     0  02:46      1.64    1.76    0.45
  WS02004138WS02004139 CONDUIT    395.20     0  00:00      3.65    0.08    0.43
  WS02004139WS02001211 CONDUIT    381.78     0  03:38      0.91    0.48    0.59
  WS02004401WS02004402 CONDUIT    412.01     0  02:59      0.99    0.49    0.77
  WS02004402WS02004403 CONDUIT    411.99     0  03:01      0.99    0.59    0.79
  WS02004403WS02004404 CONDUIT    412.02     0  03:01      0.93    0.30    0.84
  WS02004404WS02004405 CONDUIT    412.14     0  03:01      1.10    4.04    0.88
  WS02004405WS02004406 CONDUIT    412.18     0  02:42      1.03    0.81    0.88
  WS02004406WS02004407 CONDUIT    412.05     0  02:42      0.89    0.18    0.57
  WS02004407WS02004409 CONDUIT    412.01     0  02:42      1.36    0.15    0.42
  WS02004409WS02004410 CONDUIT    412.01     0  02:43      0.88    0.53    0.58
  WS02004410WS02004411 CONDUIT    411.99     0  02:43      0.84    0.56    0.60
  WS02004411WS02004412 CONDUIT    411.98     0  02:44      0.81    0.59    0.61
  WS02004412WS02004413 CONDUIT    412.00     0  02:44      0.70    0.28    0.70
  WS02004413WS02003067 CONDUIT    411.92     0  02:44      0.96    0.18    0.54
  WS02006109WS02006110 CONDUIT    411.94     0  02:23      0.84    0.79    0.94
  WS02006110WS02006113 CONDUIT    411.96     0  02:14      1.03    0.37    0.75
  WS02006111WS02006112 CONDUIT    413.97     0  02:13      1.83    0.20    0.65
  WS02006112WS02006115 CONDUIT    412.28     0  03:00      0.70    0.24    0.78
  WS02006113WS02006111 CONDUIT    423.42     0  02:19      2.25    0.51    0.40
  WS02006115WS02006116 CONDUIT    412.16     0  02:59      0.98    0.53    0.66
  WS02006116WS02004401 CONDUIT    412.02     0  03:01      1.00    0.57    0.74
  WS02006228WS02006109 CONDUIT    411.38     0  02:23      1.06    1.80    1.00
  WS02006229WS02006228 CONDUIT    412.51     0  02:23      1.13    1.37    1.00
  WS02006230WS02006229 CONDUIT    410.84     0  02:23      1.22    9.14    1.00
  WS02006231WS02006230 CONDUIT    400.27     0  02:39      1.37    6.07    0.77
  WS02006232WS02006231 CONDUIT    400.40     0  02:39      1.08    0.84    0.92
  WS02006234WS02006232 CONDUIT    400.40     0  02:22      1.40    0.81    1.00
  WS02006235WS02006234 CONDUIT    401.45     0  02:51      1.30    4.24    0.99
  WS02006238WS02006235 CONDUIT    402.01     0  02:53      1.48    0.90    1.00
  WS02006239WS02006238 CONDUIT    401.41     0  02:53      1.21    1.28    1.00
  WS02006240WS02006239 CONDUIT    401.15     0  02:29      1.30    1.26    1.00
  WS02006242WS02006240 CONDUIT    401.05     0  02:17      1.17    1.59    1.00
  WS02006243WS02006242 CONDUIT    401.66     0  02:57      1.43    0.86    1.00
  WS02006245WS02006243 CONDUIT    400.85     0  02:44      1.45    1.19    1.00
  WS02006247WS02006245 CONDUIT    403.21     0  02:21      1.43    3.20    1.00
  WS02006248WS02006247 CONDUIT    401.14     0  02:27      1.45    0.87    1.00
  WS02006249WS02006248 CONDUIT    401.65     0  02:25      1.38    2.20    1.00
  WS02006251WS02006249 CONDUIT    462.37     0  01:46      1.99    1.33    1.00
  WS02006252WS02006251 CONDUIT    402.83     0  01:45     24.55    1.48    1.00
  WS02006256WS02006235 CONDUIT    288.91     0  00:00      4.23    3.06    1.00
  WSF200WS02003060     CONDUIT    411.93     0  02:45      1.43    0.09    0.30
  YS02001580YS02001583 CONDUIT     79.28     0  02:17      0.58    0.31    1.00
  YS02001583YS02001586 CONDUIT    147.61     0  02:17      0.61    0.22    1.00
  YS02001586YS02001590 CONDUIT    318.17     0  02:24      1.26    0.56    1.00
  YS02001590YS02001593 CONDUIT    318.31     0  02:22      1.13    2.00    1.00
  YS02001593YS02001596 CONDUIT    318.17     0  02:24      1.63    0.50    1.00
  YS02001596YS02001600 CONDUIT    318.17     0  02:24      1.13    0.62    1.00
  YS02001600YS02001601 CONDUIT    318.13     0  02:24      1.13    0.55    1.00
  YS02001601YS02001602 CONDUIT    502.50     0  02:16      1.78    1.82    1.00
  YS02001602YS02001605 CONDUIT    502.96     0  02:16      1.78   10.64    1.00
  YS02001605YS02001607 CONDUIT    502.89     0  02:16      1.78    2.76    1.00
  YS02001607YS02001610 CONDUIT    498.03     0  02:15      0.63    0.47    1.00
  YS02001610YS02001613 CONDUIT    497.06     0  02:16      0.63    0.57    1.00
  YS02001613YS02001616 CONDUIT    501.01     0  02:16      0.64    0.43    1.00
  YS02001616YS02001619 CONDUIT    491.62     0  02:16      0.66    0.85    1.00
  YS02001619YS02001622 CONDUIT    932.87     0  02:20      1.19    1.37    1.00
  YS02001622YS02001625 CONDUIT    932.57     0  02:20      1.19    0.50    1.00
  YS02001625YS02001629 CONDUIT    932.16     0  02:20      1.19    0.44    1.00
  YS02001629YS02163301 CONDUIT    933.19     0  02:20      1.19    1.15    1.00
  YS02001633YS02163601 CONDUIT   1372.97     0  02:20      1.75    1.44    1.00
  YS02001641YS02001644 CONDUIT   1370.21     0  02:20      1.74    4.43    1.00
  YS02001644YS02001647 CONDUIT   1745.90     0  02:20      2.24    1.03    1.00
  YS02001647YS02001649 CONDUIT   1748.55     0  02:20      2.34    0.92    1.00
  YS02001649YS02001757 CONDUIT   1926.41     0  02:20      2.50    1.17    1.00
  YS02001652YS02001649 CONDUIT    675.18     0  02:25      0.86    0.33    1.00
  YS02001655YS02001652 CONDUIT    673.02     0  02:25      1.26    0.33    1.00
  YS02001658YS02001655 CONDUIT    671.36     0  02:25      1.87    0.28    1.00
  YS02001661YS02001658 CONDUIT    668.89     0  02:25      2.28    0.26    1.00
  YS02001664YS02001661 CONDUIT    804.53     0  02:24      2.24    0.25    0.71
  YS02001745YS02001748 CONDUIT    461.38     0  02:23      2.08    0.18    0.84
  YS02001748YS02001751 CONDUIT    384.64     0  02:24      1.63    0.19    1.00
  YS02001751YS02001754 CONDUIT    386.01     0  02:24      1.37    0.19    1.00
  YS02001754YS02001757 CONDUIT    385.05     0  02:24      0.49    0.16    1.00
  YS02001757CaochengTiaoxuchi CONDUIT   3168.64     0  02:24      4.03    1.37    1.00
  YS02001759YS02001757 CONDUIT   1244.02     0  02:25      1.58    0.88    1.00
  YS02001762YS02001759 CONDUIT    721.74     0  02:26      0.92    0.83    1.00
  YS02001765YS02001762 CONDUIT    720.58     0  02:26      0.92    0.68    1.00
  YS02001767YS02001765 CONDUIT    720.56     0  02:26      0.92    0.91    1.00
  YS02001770YS02001767 CONDUIT    719.04     0  02:26      0.92    2.85    1.00
  YS02001774YS02001770 CONDUIT    261.48     0  02:21      0.33    0.17    1.00
  YS02001779YS02001774 CONDUIT    248.02     0  02:21      0.32    0.12    1.00
  YS02001783YS02001784 CONDUIT    975.37     0  02:25      1.94    1.34    1.00
  YS02001784YS02001785 CONDUIT    976.71     0  02:24      1.94    2.27    1.00
  YS02001786YS02001788 CONDUIT    976.61     0  02:24      1.94    1.88    1.00
  YS02001788YS02001790 CONDUIT    977.32     0  02:24      1.96    0.72    1.00
  YS02001790YS02001791 CONDUIT    977.81     0  02:24      2.29    1.06    1.00
  YS02001791YS02001793 CONDUIT    978.09     0  02:24      4.35    0.42    1.00
  YS02001793JiankangQianchi CONDUIT    977.80     0  02:24      1.54    0.08    1.00
  YS02001882YS02001884 CONDUIT     35.73     0  02:18      0.10    0.04    1.00
  YS02001884YS02001887 CONDUIT     76.29     0  02:18      0.10    0.10    1.00
  YS02001887YS02001890 CONDUIT    569.05     0  02:25      0.72    0.97    1.00
  YS02001890YS02001895 CONDUIT    513.39     0  02:26      0.65    0.24    1.00
  YS02001895YS02001898 CONDUIT    513.97     0  02:26      0.65    0.89    1.00
  YS02001898YS02001901 CONDUIT    514.13     0  02:26      0.65    0.33    1.00
  YS02001901YS02001904 CONDUIT    513.04     0  02:26      0.65    0.80    1.00
  YS02001904YS02001907 CONDUIT    513.58     0  02:26      0.65    0.18    1.00
  YS02001907YS02006553 CONDUIT    683.90     0  02:35      0.76    0.80    1.00
  YS02001910YS02001907 CONDUIT    985.56     0  02:25      1.25    0.56    1.00
  YS02001915YS02001910 CONDUIT    986.00     0  02:25      1.26    0.49    1.00
  YS02001918YS02001915 CONDUIT    450.32     0  02:22      0.57    0.25    1.00
  YS02001920YS02001918 CONDUIT    448.02     0  02:22      0.63    0.43    1.00
  YS02001923YS02001920 CONDUIT    443.90     0  02:22      0.70    0.20    1.00
  YS02001926YS02001923 CONDUIT    406.65     0  02:22      0.94    0.58    1.00
  YS02001929YS02001926 CONDUIT    404.52     0  02:22      1.09    0.19    1.00
  YS02006553YS02006556 CONDUIT    683.35     0  02:35      0.87    0.58    1.00
  YS02006556YS02006558 CONDUIT    683.34     0  02:35      0.87    0.54    1.00
  YS02006558YS02006561 CONDUIT    975.34     0  02:23      3.45    2.16    1.00
  YS02006561YS02001783 CONDUIT    975.24     0  02:23      1.95    0.51    1.00
  YS02163301YS02001633 CONDUIT    933.54     0  02:20      1.19    0.88    1.00
  YS02163601YS02164001 CONDUIT   1371.64     0  02:20      1.75    1.22    1.00
  YS02164001YS02001641 CONDUIT   1369.07     0  02:20      1.74    1.87    1.00
  CC-R1                PUMP       683.00     0  00:00              1.00
  CC-R2                PUMP       683.00     0  00:00              1.00
  CC-S1                PUMP       200.00     0  00:00              1.00
  CC-S2                PUMP       200.00     0  00:00              1.00
  JK-R1                PUMP      1000.00     0  00:00              1.00
  JK-R2                PUMP      1000.00     0  00:00              1.00
  JK-S                 PUMP       300.00     0  00:00              1.00
  XR-1                 PUMP        95.00     0  00:00              1.00
  XR-2                 PUMP        95.00     0  00:00              1.00
  XR-3                 PUMP        95.00     0  00:00              1.00
  XR-4                 PUMP        95.00     0  00:00              1.00
  
  
  ***************************
  Flow Classification Summary
  ***************************
  
  -------------------------------------------------------------------------------------
                      Adjusted    ---------- Fraction of Time in Flow Class ---------- 
                       /Actual         Up    Down  Sub   Sup   Up    Down  Norm  Inlet 
  Conduit               Length    Dry  Dry   Dry   Crit  Crit  Crit  Crit  Ltd   Ctrl  
  -------------------------------------------------------------------------------------
  1                       1.00   0.00  0.00  0.00  0.00  1.00  0.00  0.00  0.19  0.00
  WS02001211WS02001212    1.00   0.00  0.00  0.00  1.00  0.00  0.00  0.00  0.00  0.00
  WS02001212WS02001213    1.00   0.00  0.00  0.00  0.36  0.00  0.64  0.00  0.00  0.00
  WS02001213WS02003059    1.00   0.00  0.00  0.00  0.99  0.00  0.00  0.00  0.00  0.00
  WS02003059WS02003060    1.00   0.00  0.00  0.00  1.00  0.00  0.00  0.00  0.00  0.00
  WS02003060WS02003069    1.00   0.00  0.00  0.00  0.99  0.01  0.00  0.00  0.00  0.00
  WS02003066WSF200        1.00   0.02  0.10  0.00  0.00  0.88  0.00  0.00  0.87  0.00
  WS02003067WS02003066    1.00   0.10  0.02  0.00  0.89  0.00  0.00  0.00  0.00  0.00
  WS02003069WS02003072    1.00   0.00  0.00  0.00  0.99  0.01  0.00  0.00  0.00  0.00
  WS02003072WS02003073    1.00   0.00  0.00  0.00  0.00  0.00  0.00  1.00  0.00  0.00
  WS02004138WS02004139    1.00   0.00  0.00  0.00  0.99  0.01  0.00  0.00  1.00  0.00
  WS02004139WS02001211    1.00   0.00  0.00  0.00  1.00  0.00  0.00  0.00  0.00  0.00
  WS02004401WS02004402    1.00   0.02  0.00  0.00  0.98  0.00  0.00  0.00  0.00  0.00
  WS02004402WS02004403    1.00   0.02  0.00  0.00  0.98  0.00  0.00  0.00  0.00  0.00
  WS02004403WS02004404    1.00   0.00  0.03  0.00  0.97  0.00  0.00  0.00  0.00  0.00
  WS02004404WS02004405    1.00   0.00  0.00  0.00  1.00  0.00  0.00  0.00  0.00  0.00
  WS02004405WS02004406    1.00   0.00  0.00  0.00  1.00  0.00  0.00  0.00  0.00  0.00
  WS02004406WS02004407    1.00   0.00  0.05  0.00  0.95  0.00  0.00  0.00  0.00  0.00
  WS02004407WS02004409    1.00   0.05  0.00  0.00  0.94  0.01  0.00  0.00  0.94  0.00
  WS02004409WS02004410    1.00   0.05  0.00  0.00  0.95  0.00  0.00  0.00  0.03  0.00
  WS02004410WS02004411    1.00   0.05  0.00  0.00  0.95  0.00  0.00  0.00  0.00  0.00
  WS02004411WS02004412    1.00   0.05  0.00  0.00  0.95  0.00  0.00  0.00  0.00  0.00
  WS02004412WS02004413    1.00   0.05  0.00  0.00  0.94  0.00  0.00  0.00  0.01  0.00
  WS02004413WS02003067    1.00   0.06  0.04  0.00  0.00  0.00  0.90  0.00  0.00  0.00
  WS02006109WS02006110    1.00   0.00  0.01  0.00  0.98  0.00  0.01  0.00  0.00  0.00
  WS02006110WS02006113    1.00   0.01  0.01  0.00  0.98  0.00  0.00  0.00  0.00  0.00
  WS02006111WS02006112    1.00   0.02  0.00  0.00  0.98  0.00  0.00  0.00  0.98  0.00
  WS02006112WS02006115    1.00   0.02  0.00  0.00  0.97  0.00  0.00  0.00  0.00  0.00
  WS02006113WS02006111    1.00   0.02  0.00  0.00  0.00  0.98  0.00  0.00  0.11  0.00
  WS02006115WS02006116    1.00   0.02  0.00  0.00  0.97  0.00  0.00  0.01  0.00  0.00
  WS02006116WS02004401    1.00   0.02  0.00  0.00  0.98  0.00  0.00  0.00  0.00  0.00
  WS02006228WS02006109    1.00   0.00  0.00  0.00  1.00  0.00  0.00  0.00  0.00  0.00
  WS02006229WS02006228    1.00   0.00  0.00  0.00  0.99  0.00  0.00  0.01  0.00  0.00
  WS02006230WS02006229    1.00   0.00  0.00  0.00  0.99  0.00  0.00  0.01  0.00  0.00
  WS02006231WS02006230    1.00   0.00  0.00  0.00  0.20  0.00  0.80  0.00  0.00  0.00
  WS02006232WS02006231    1.00   0.00  0.00  0.00  0.99  0.00  0.01  0.00  0.00  0.00
  WS02006234WS02006232    1.00   0.00  0.00  0.00  1.00  0.00  0.00  0.00  0.53  0.00
  WS02006235WS02006234    1.00   0.00  0.00  0.00  0.43  0.00  0.57  0.00  0.00  0.00
  WS02006238WS02006235    1.00   0.00  0.00  0.00  1.00  0.00  0.00  0.00  0.00  0.00
  WS02006239WS02006238    1.00   0.00  0.00  0.00  1.00  0.00  0.00  0.00  0.62  0.00
  WS02006240WS02006239    1.00   0.00  0.00  0.00  0.34  0.00  0.00  0.66  0.01  0.00
  WS02006242WS02006240    1.00   0.00  0.00  0.00  0.99  0.00  0.01  0.00  0.00  0.00
  WS02006243WS02006242    1.00   0.00  0.00  0.00  0.99  0.00  0.00  0.01  0.71  0.00
  WS02006245WS02006243    1.00   0.00  0.00  0.00  0.39  0.00  0.00  0.61  0.00  0.00
  WS02006247WS02006245    1.00   0.00  0.00  0.00  0.99  0.00  0.00  0.01  0.00  0.00
  WS02006248WS02006247    1.00   0.00  0.00  0.00  0.99  0.00  0.00  0.01  0.13  0.00
  WS02006249WS02006248    1.00   0.00  0.00  0.00  0.28  0.00  0.72  0.00  0.00  0.00
  WS02006251WS02006249    1.00   0.00  0.00  0.00  1.00  0.00  0.00  0.00  0.73  0.00
  WS02006252WS02006251    1.00   0.02  0.74  0.00  0.00  0.00  0.24  0.00  0.00  0.00
  WS02006256WS02006235    1.00   0.00  0.00  0.00  1.00  0.00  0.00  0.00  0.00  0.00
  WSF200WS02003060        1.00   0.00  0.02  0.00  0.98  0.00  0.00  0.00  0.70  0.00
  YS02001580YS02001583    1.00   0.28  0.55  0.00  0.17  0.00  0.00  0.00  0.64  0.00
  YS02001583YS02001586    1.00   0.49  0.30  0.00  0.21  0.00  0.00  0.00  0.65  0.00
  YS02001586YS02001590    1.00   0.13  0.00  0.00  0.39  0.04  0.00  0.44  0.35  0.00
  YS02001590YS02001593    1.00   0.13  0.01  0.00  0.09  0.00  0.77  0.00  0.00  0.00
  YS02001593YS02001596    1.00   0.14  0.00  0.00  0.69  0.04  0.00  0.13  0.63  0.00
  YS02001596YS02001600    1.00   0.14  0.00  0.00  0.77  0.01  0.00  0.08  0.03  0.00
  YS02001600YS02001601    1.00   0.13  0.01  0.00  0.86  0.00  0.00  0.00  0.06  0.00
  YS02001601YS02001602    1.00   0.13  0.01  0.00  0.86  0.00  0.00  0.00  0.00  0.00
  YS02001602YS02001605    1.00   0.14  0.00  0.00  0.86  0.00  0.00  0.00  0.00  0.00
  YS02001605YS02001607    1.00   0.14  0.00  0.00  0.86  0.00  0.00  0.00  0.00  0.00
  YS02001607YS02001610    1.00   0.13  0.01  0.00  0.86  0.00  0.00  0.00  0.02  0.00
  YS02001610YS02001613    1.00   0.13  0.00  0.00  0.87  0.00  0.00  0.00  0.01  0.00
  YS02001613YS02001616    1.00   0.13  0.00  0.00  0.87  0.00  0.00  0.00  0.01  0.00
  YS02001616YS02001619    1.00   0.13  0.00  0.00  0.87  0.00  0.00  0.00  0.00  0.00
  YS02001619YS02001622    1.00   0.13  0.00  0.00  0.87  0.00  0.00  0.00  0.00  0.00
  YS02001622YS02001625    1.00   0.13  0.00  0.00  0.87  0.00  0.00  0.00  0.05  0.00
  YS02001625YS02001629    1.00   0.13  0.06  0.00  0.74  0.00  0.07  0.00  0.00  0.00
  YS02001629YS02163301    1.00   0.16  0.01  0.00  0.83  0.00  0.00  0.00  0.00  0.00
  YS02001633YS02163601    1.00   0.00  0.01  0.00  0.99  0.00  0.00  0.00  0.15  0.00
  YS02001641YS02001644    1.00   0.00  0.01  0.00  0.99  0.00  0.00  0.00  0.00  0.00
  YS02001644YS02001647    1.00   0.00  0.18  0.00  0.82  0.00  0.00  0.00  0.00  0.00
  YS02001647YS02001649    1.00   0.00  0.18  0.00  0.76  0.05  0.00  0.00  0.02  0.00
  YS02001649YS02001757    1.00   0.00  0.00  0.00  0.94  0.06  0.00  0.00  0.20  0.00
  YS02001652YS02001649    1.00   0.00  0.00  0.00  0.96  0.04  0.00  0.00  0.20  0.00
  YS02001655YS02001652    1.00   0.00  0.00  0.00  0.74  0.01  0.00  0.25  0.02  0.00
  YS02001658YS02001655    1.00   0.00  0.14  0.00  0.72  0.14  0.00  0.00  0.09  0.00
  YS02001661YS02001658    1.00   0.14  0.00  0.00  0.71  0.15  0.00  0.00  0.06  0.00
  YS02001664YS02001661    1.00   0.13  0.00  0.00  0.82  0.06  0.00  0.00  0.86  0.00
  YS02001745YS02001748    1.00   0.00  0.00  0.00  0.70  0.00  0.00  0.29  0.00  0.00
  YS02001748YS02001751    1.00   0.00  0.00  0.00  0.85  0.15  0.00  0.00  0.13  0.00
  YS02001751YS02001754    1.00   0.00  0.00  0.00  0.72  0.00  0.00  0.27  0.01  0.00
  YS02001754YS02001757    1.00   0.00  0.00  0.00  1.00  0.00  0.00  0.00  0.27  0.00
  YS02001757CaochengTiaoxuchi    1.00   0.00  0.00  0.00  1.00  0.00  0.00  0.00  0.25  0.00
  YS02001759YS02001757    1.00   0.00  0.00  0.00  1.00  0.00  0.00  0.00  0.08  0.00
  YS02001762YS02001759    1.00   0.00  0.00  0.00  1.00  0.00  0.00  0.00  0.05  0.00
  YS02001765YS02001762    1.00   0.00  0.00  0.00  1.00  0.00  0.00  0.00  0.17  0.00
  YS02001767YS02001765    1.00   0.00  0.00  0.00  1.00  0.00  0.00  0.00  0.00  0.00
  YS02001770YS02001767    1.00   0.00  0.00  0.00  1.00  0.00  0.00  0.00  0.00  0.00
  YS02001774YS02001770    1.00   0.00  0.13  0.00  0.86  0.00  0.00  0.00  0.04  0.00
  YS02001779YS02001774    1.00   0.00  0.00  0.00  1.00  0.00  0.00  0.00  0.20  0.00
  YS02001783YS02001784    1.00   0.00  0.19  0.00  0.81  0.00  0.00  0.00  0.00  0.00
  YS02001784YS02001785    1.00   0.00  0.00  0.00  1.00  0.00  0.00  0.00  0.18  0.00
  YS02001786YS02001788    1.00   0.00  0.00  0.00  0.94  0.06  0.00  0.00  0.00  0.00
  YS02001788YS02001790    1.00   0.00  0.00  0.00  0.93  0.07  0.00  0.00  0.21  0.00
  YS02001790YS02001791    1.00   0.00  0.00  0.00  0.75  0.25  0.00  0.00  0.04  0.00
  YS02001791YS02001793    1.00   0.00  0.00  0.00  0.74  0.26  0.00  0.00  0.00  0.00
  YS02001793JiankangQianchi    1.00   0.00  0.00  0.00  0.94  0.06  0.00  0.00  0.23  0.00
  YS02001882YS02001884    1.00   0.16  0.01  0.00  0.83  0.00  0.00  0.00  0.00  0.00
  YS02001884YS02001887    1.00   0.06  0.05  0.00  0.89  0.00  0.00  0.00  0.00  0.00
  YS02001887YS02001890    1.00   0.00  0.00  0.00  0.97  0.00  0.03  0.00  0.00  0.00
  YS02001890YS02001895    1.00   0.00  0.17  0.00  0.83  0.00  0.00  0.00  0.00  0.00
  YS02001895YS02001898    1.00   0.17  0.00  0.00  0.80  0.00  0.02  0.00  0.00  0.00
  YS02001898YS02001901    1.00   0.17  0.00  0.00  0.82  0.00  0.00  0.00  0.01  0.00
  YS02001901YS02001904    1.00   0.17  0.00  0.00  0.83  0.00  0.00  0.00  0.00  0.00
  YS02001904YS02001907    1.00   0.00  0.17  0.00  0.83  0.00  0.00  0.00  0.00  0.00
  YS02001907YS02006553    1.00   0.00  0.02  0.00  0.98  0.00  0.00  0.00  0.00  0.00
  YS02001910YS02001907    1.00   0.00  0.00  0.00  0.97  0.00  0.00  0.03  0.12  0.00
  YS02001915YS02001910    1.00   0.00  0.00  0.00  0.96  0.04  0.00  0.00  0.17  0.00
  YS02001918YS02001915    1.00   0.00  0.01  0.00  0.98  0.02  0.00  0.00  0.78  0.00
  YS02001920YS02001918    1.00   0.00  0.01  0.00  0.99  0.00  0.00  0.00  0.00  0.00
  YS02001923YS02001920    1.00   0.00  0.00  0.00  1.00  0.00  0.00  0.00  0.94  0.00
  YS02001926YS02001923    1.00   0.00  0.07  0.00  0.04  0.00  0.88  0.00  0.00  0.00
  YS02001929YS02001926    1.00   0.00  0.13  0.00  0.87  0.00  0.00  0.00  0.84  0.00
  YS02006553YS02006556    1.00   0.01  0.00  0.00  0.99  0.00  0.00  0.00  0.03  0.00
  YS02006556YS02006558    1.00   0.00  0.00  0.00  1.00  0.00  0.00  0.00  0.00  0.00
  YS02006558YS02006561    1.00   0.19  0.00  0.00  0.06  0.75  0.00  0.00  0.18  0.00
  YS02006561YS02001783    1.00   0.19  0.00  0.00  0.73  0.08  0.00  0.00  0.72  0.00
  YS02163301YS02001633    1.00   0.00  0.16  0.00  0.84  0.00  0.00  0.00  0.00  0.00
  YS02163601YS02164001    1.00   0.00  0.08  0.00  0.92  0.00  0.00  0.00  0.00  0.00
  YS02164001YS02001641    1.00   0.01  0.07  0.00  0.92  0.00  0.00  0.00  0.06  0.00
  
  
  *************************
  Conduit Surcharge Summary
  *************************
  
  ----------------------------------------------------------------------------
                                                           Hours        Hours 
                         --------- Hours Full --------   Above Full   Capacity
  Conduit                Both Ends  Upstream  Dnstream   Normal Flow   Limited
  ----------------------------------------------------------------------------
  WS02003072WS02003073        0.01      0.01      0.01      2.31         0.01
  WS02004404WS02004405        0.01      0.01      0.01      2.16         0.01
  WS02006109WS02006110        0.01      0.01      1.52      0.01         0.01
  WS02006110WS02006113        0.01      0.01      1.48      0.01         0.01
  WS02006111WS02006112        0.01      0.01      1.59      0.01         0.01
  WS02006228WS02006109        1.44      1.52      1.44      1.79         1.44
  WS02006229WS02006228        1.43      1.45      1.43      1.69         1.43
  WS02006230WS02006229        1.59      1.64      1.59      2.43         1.59
  WS02006231WS02006230        0.01      0.01      0.01      2.23         0.01
  WS02006232WS02006231        0.01      0.01      1.52      0.01         0.01
  WS02006234WS02006232        1.40      1.40      1.52      0.01         0.01
  WS02006235WS02006234        0.01      0.01      1.45      2.10         0.01
  WS02006238WS02006235        1.47      1.47      1.52      0.01         0.01
  WS02006239WS02006238        1.48      1.51      1.48      1.74         1.48
  WS02006240WS02006239        1.46      1.48      1.46      1.76         1.46
  WS02006242WS02006240        1.47      1.47      1.61      1.83         0.01
  WS02006243WS02006242        1.49      1.49      1.56      0.01         0.01
  WS02006245WS02006243        1.48      1.49      1.48      1.82         1.48
  WS02006247WS02006245        1.48      1.51      1.48      1.92         1.48
  WS02006248WS02006247        1.49      1.49      1.50      0.01         0.01
  WS02006249WS02006248        1.48      1.48      1.50      1.91         0.01
  WS02006251WS02006249        1.49      1.50      1.49      1.89         1.49
  WS02006252WS02006251        1.92      1.92      1.92      1.93         0.01
  WS02006256WS02006235        2.16      2.16      3.00      0.02         0.01
  YS02001580YS02001583        0.39      0.39      0.43      0.01         0.01
  YS02001583YS02001586        0.40      0.40      0.52      0.01         0.01
  YS02001586YS02001590        0.53      0.53      0.60      0.01         0.01
  YS02001590YS02001593        0.60      0.60      0.62      0.59         0.01
  YS02001593YS02001596        0.61      0.61      0.73      0.01         0.01
  YS02001596YS02001600        0.80      0.80      0.98      0.01         0.01
  YS02001600YS02001601        1.14      1.14      6.04      0.01         0.01
  YS02001601YS02001602        5.98      5.98      6.06      0.81         0.01
  YS02001602YS02001605        5.95      5.95      5.98      1.99         0.04
  YS02001605YS02001607        5.91      5.95      5.91      1.05         0.92
  YS02001607YS02001610        0.70      0.70      0.79      0.01         0.01
  YS02001610YS02001613        0.71      0.71      0.79      0.01         0.01
  YS02001613YS02001616        0.63      0.63      0.71      0.01         0.01
  YS02001616YS02001619        0.62      0.62      0.63      0.01         0.01
  YS02001619YS02001622        0.62      0.62      0.63      0.52         0.46
  YS02001622YS02001625        0.63      0.63      5.77      0.01         0.01
  YS02001625YS02001629        0.57      0.57      5.77      0.01         0.01
  YS02001629YS02163301        5.77      5.77      5.77      0.07         0.09
  YS02001633YS02163601        5.78      5.78      5.79      0.21         0.21
  YS02001641YS02001644        5.73      5.75      5.73      1.12         0.84
  YS02001644YS02001647        5.66      5.66      5.73      0.02         0.01
  YS02001647YS02001649        5.66      5.66      5.66      0.01         0.01
  YS02001649YS02001757        5.66      5.66      5.66      0.11         0.04
  YS02001652YS02001649        5.64      5.64      5.66      0.01         0.01
  YS02001655YS02001652        0.30      0.30      5.64      0.01         0.01
  YS02001658YS02001655        0.10      0.10      0.30      0.01         0.01
  YS02001661YS02001658        0.01      0.01      0.10      0.01         0.01
  YS02001664YS02001661        0.01      0.01      0.01      0.01         0.01
  YS02001745YS02001748        0.01      0.01      0.03      0.01         0.01
  YS02001748YS02001751        0.08      0.08      0.16      0.01         0.01
  YS02001751YS02001754        0.16      0.16      5.34      0.01         0.01
  YS02001754YS02001757        5.64      5.64      5.66      0.01         0.01
  YS02001757CaochengTiaoxuchi        5.66      5.66      5.67      0.23         0.20
  YS02001759YS02001757        5.65      5.65      5.66      0.01         0.01
  YS02001762YS02001759        5.65      5.65      5.65      0.01         0.01
  YS02001765YS02001762        5.65      5.65      5.65      0.01         0.01
  YS02001767YS02001765        5.65      5.65      5.65      0.01         0.02
  YS02001770YS02001767        5.65      5.65      5.65      0.34         0.35
  YS02001774YS02001770        5.64      5.64      5.65      0.01         0.01
  YS02001779YS02001774        4.56      4.56      5.65      0.01         0.01
  YS02001783YS02001784        0.57      0.57      0.60      0.43         0.44
  YS02001784YS02001785        0.57      0.60      0.57      0.66         0.57
  YS02001786YS02001788        0.57      0.57      0.57      0.61         0.57
  YS02001788YS02001790        0.57      0.57      5.84      0.01         0.01
  YS02001790YS02001791        5.84      5.84      5.86      0.25         0.25
  YS02001791YS02001793        5.86      5.86      5.90      0.01         0.01
  YS02001793JiankangQianchi        5.88      5.88      6.18      0.01         0.01
  YS02001882YS02001884        0.35      0.35      0.36      0.01         0.01
  YS02001884YS02001887        0.38      0.38      0.38      0.01         0.01
  YS02001887YS02001890        0.39      0.39      0.40      0.01         0.01
  YS02001890YS02001895        0.34      0.34      0.42      0.01         0.01
  YS02001895YS02001898        0.33      0.33      0.34      0.01         0.01
  YS02001898YS02001901        0.34      0.34      0.37      0.01         0.01
  YS02001901YS02001904        0.36      0.36      0.37      0.01         0.01
  YS02001904YS02001907        0.36      0.36      0.59      0.01         0.01
  YS02001907YS02006553        0.69      0.69      0.74      0.01         0.01
  YS02001910YS02001907        0.42      0.42      0.58      0.01         0.01
  YS02001915YS02001910        0.34      0.34      0.42      0.01         0.01
  YS02001918YS02001915        0.26      0.26      0.34      0.01         0.01
  YS02001920YS02001918        0.26      0.26      0.28      0.01         0.01
  YS02001923YS02001920        0.22      0.22      0.28      0.01         0.01
  YS02001926YS02001923        0.01      0.01      0.02      0.01         0.01
  YS02001929YS02001926        0.01      0.01      0.02      0.01         0.01
  YS02006553YS02006556        0.50      0.50      0.59      0.01         0.01
  YS02006556YS02006558        0.53      0.53      0.60      0.01         0.01
  YS02006558YS02006561        0.38      0.49      0.38      0.65         0.38
  YS02006561YS02001783        0.30      0.30      0.57      0.01         0.01
  YS02163301YS02001633        5.77      5.77      5.79      0.01         0.01
  YS02163601YS02164001        5.75      5.75      5.79      0.09         0.01
  YS02164001YS02001641        5.75      5.75      5.75      0.49         0.44
  
  
  ***************
  Pumping Summary
  ***************
  
  ---------------------------------------------------------------------------------------------------------
                                                  Min       Avg       Max     Total     Power    % Time Off
                        Percent   Number of      Flow      Flow      Flow    Volume     Usage    Pump Curve
  Pump                 Utilized   Start-Ups       LPS       LPS       LPS  10^6 ltr     Kw-hr    Low   High
  ---------------------------------------------------------------------------------------------------------
  CC-R1                    1.06           1      0.00    683.00    683.00     0.208      3.51    0.0  100.0
  CC-R2                    1.06           1      0.00    683.00    683.00     0.208      3.51    0.0  100.0
  CC-S1                   24.06           3      0.00    200.00    200.00     1.386      7.29    0.0   35.8
  CC-S2                   24.06           3      0.00    200.00    200.00     1.386      7.29    0.0   35.8
  JK-R1                    0.97           2      0.00    347.46   1000.00     0.078      0.47    0.0    0.0
  JK-R2                    0.97           2      0.00    347.46   1000.00     0.078      0.47    0.0    0.0
  JK-S                     0.97           2      0.00    104.30    300.00     0.023      0.44    0.0    0.0
  XR-1                   100.00           1      0.00     95.00     95.00     2.736     68.18    0.0    0.0
  XR-2                   100.00           1      0.00     95.00     95.00     2.736     68.18    0.0    0.0
  XR-3                   100.00           1      0.00     95.00     95.00     2.736     68.18    0.0    0.0
  XR-4                   100.00           1      0.00     95.00     95.00     2.736     68.18    0.0    0.0
  

  Analysis begun on:  Wed Nov  5 16:29:32 2025
  Analysis ended on:  Wed Nov  5 16:29:35 2025
  Total elapsed time: 00:00:03