
  EPA STORM WATER MANAGEMENT MODEL - VERSION 5.2 (Build 5.2.4)
  PYSWMM TOOLKIT API - VERSION v1.0 (2023-11-27)
  ------------------------------------------------------------

  WARNING 04: minimum elevation drop used for Conduit WS02004404WS02004405
  WARNING 03: negative offset ignored for Link YS02001904YS02001907
  
  ****************
  Analysis Options
  ****************
  Flow Units ............... LPS
  Process Models:
    Rainfall/Runoff ........ YES
    RDII ................... NO
    Snowmelt ............... NO
    Groundwater ............ NO
    Flow Routing ........... YES
    Ponding Allowed ........ NO
    Water Quality .......... NO
  Infiltration Method ...... HORTON
  Flow Routing Method ...... DYNWAVE
  Surcharge Method ......... EXTRAN
  Starting Date ............ 08/28/2015 08:00:00
  Ending Date .............. 08/28/2015 16:00:00
  Antecedent Dry Days ...... 8.0
  Report Time Step ......... 00:01:00
  Wet Time Step ............ 00:01:00
  Dry Time Step ............ 00:01:00
  Routing Time Step ........ 30.00 sec
  Variable Time Step ....... YES
  Maximum Trials ........... 8
  Number of Threads ........ 4
  Head Tolerance ........... 0.001500 m
  
  
  **************************        Volume         Depth
  Runoff Quantity Continuity     hectare-m            mm
  **************************     ---------       -------
  Initial LID Storage ......         0.049         1.488
  Total Precipitation ......         1.545        46.588
  Evaporation Loss .........         0.000         0.000
  Infiltration Loss ........         0.073         2.206
  Surface Runoff ...........         1.121        33.798
  Final Storage ............         0.401        12.082
  Continuity Error (%) .....        -0.020
  
  
  **************************        Volume        Volume
  Flow Routing Continuity        hectare-m      10^6 ltr
  **************************     ---------     ---------
  Dry Weather Inflow .......         0.602         6.020
  Wet Weather Inflow .......         1.121        11.211
  Groundwater Inflow .......         0.000         0.000
  RDII Inflow ..............         0.000         0.000
  External Inflow ..........         0.105         1.045
  External Outflow .........         1.496        14.962
  Flooding Loss ............         0.347         3.466
  Evaporation Loss .........         0.000         0.000
  Exfiltration Loss ........         0.000         0.000
  Initial Stored Volume ....         0.303         3.031
  Final Stored Volume ......         0.746         7.465
  Continuity Error (%) .....       -21.523
  
  
  *************************
  Highest Continuity Errors
  *************************
  Node YS02001774 (41.50%)
  Node YS02001583 (-8.30%)
  Node WS02006256 (-5.74%)
  Node YS02001884 (4.97%)
  Node YS02001754 (4.27%)
  
  
  ***************************
  Time-Step Critical Elements
  ***************************
  Link WS02001212WS02001213 (28.06%)
  Link WS02006235WS02006234 (17.12%)
  Link WS02006238WS02006235 (15.98%)
  Link WS02006252WS02006251 (15.24%)
  Link YS02006556YS02006558 (4.48%)
  
  
  ********************************
  Highest Flow Instability Indexes
  ********************************
  Link WS02006113WS02006111 (39)
  Link WS02006111WS02006112 (27)
  Link WS02006110WS02006113 (19)
  Link WS02006256WS02006235 (17)
  Link WS02006238WS02006235 (15)
  
  
  *********************************
  Most Frequent Nonconverging Nodes
  *********************************
  Node CC-1 (6.72%)
  Node CC-2 (6.72%)
  Node JK-1 (6.72%)
  Node JK-2 (6.72%)
  Node WSC (6.72%)
  
  
  *************************
  Routing Time Step Summary
  *************************
  Minimum Time Step           :     0.02 sec
  Average Time Step           :     3.30 sec
  Maximum Time Step           :     6.46 sec
  % of Time in Steady State   :     0.00
  Average Iterations per Step :     2.68
  % of Steps Not Converging   :     6.72
  Time Step Frequencies       :
     30.000 - 13.228 sec      :     0.00 %
     13.228 -  5.833 sec      :    27.23 %
      5.833 -  2.572 sec      :    33.95 %
      2.572 -  1.134 sec      :    18.00 %
      1.134 -  0.500 sec      :    20.81 %
  
  
  ***************************
  Subcatchment Runoff Summary
  ***************************
  
  ------------------------------------------------------------------------------------------------------------------------------
                            Total      Total      Total      Total     Imperv       Perv      Total       Total     Peak  Runoff
                           Precip      Runon       Evap      Infil     Runoff     Runoff     Runoff      Runoff   Runoff   Coeff
  Subcatchment                 mm         mm         mm         mm         mm         mm         mm    10^6 ltr      LPS
  ------------------------------------------------------------------------------------------------------------------------------
  sub60                     46.59       0.00       0.00       1.33      30.71       2.99      33.70        0.44   307.17   0.723
  sub61                     46.59       0.00       0.00       2.03      30.69       4.44      35.13        0.64   445.85   0.754
  sub62                     46.59       0.00       0.00       0.90      32.71       2.03      34.74        0.95   610.91   0.746
  sub63                     46.59       0.00       0.00       3.71      26.28       7.35      33.64        0.76   494.59   0.722
  sub64                     46.59       0.00       0.00       1.78      29.92       3.66      33.58        0.81   488.66   0.721
  sub65                     46.59       0.00       0.00       1.63      32.29       3.34      35.63        0.98   570.66   0.765
  sub66                     46.59       0.00       0.00       4.31      25.40       6.41      31.81        1.48   716.55   0.683
  sub67                     46.59       0.00       0.00       0.90      33.54       2.11      35.65        0.66   479.99   0.765
  sub68                     46.59       0.00       0.00       1.56      29.62       3.41      33.03        0.91   608.55   0.709
  sub69                     46.59       0.00       0.00       1.40      31.30       4.14      35.44        1.31   742.06   0.761
  sub70                     46.59       0.00       0.00       4.69      25.07       8.28      33.35        0.96   415.09   0.716
  sub71                     46.59       0.00       0.00       0.83      29.71       1.83      31.54        0.82   498.05   0.677
  sub72                     46.59       0.00       0.00       0.79      32.08       1.70      33.79        0.46   254.63   0.725
  

  ***********************
  LID Performance Summary
  ***********************

  --------------------------------------------------------------------------------------------------------------------
                                         Total      Evap     Infil   Surface    Drain    Initial     Final  Continuity
                                        Inflow      Loss      Loss   Outflow   Outflow   Storage   Storage       Error
  Subcatchment      LID Control             mm        mm        mm        mm        mm        mm        mm           %
  --------------------------------------------------------------------------------------------------------------------
  sub60             GreenRoof            46.59      0.00      0.00      0.00      0.00      7.05     53.64       -0.01
  sub61             GreenRoof            46.59      0.00      0.00      0.00      0.00      7.05     53.64       -0.01
  sub62             GreenRoof            46.59      0.00      0.00      0.00      0.00      7.05     53.64       -0.01
  sub63             GreenRoof            46.59      0.00      0.00      0.00      0.00      7.05     53.64       -0.01
  sub64             GreenRoof            46.59      0.00      0.00      0.00      0.00      7.05     53.64       -0.01
  sub65             GreenRoof            46.59      0.00      0.00      0.00      0.00      7.05     53.64       -0.01
  sub66             GreenRoof            46.59      0.00      0.00      0.00      0.00      7.05     53.64       -0.01
  sub67             GreenRoof            46.59      0.00      0.00      0.00      0.00      7.05     53.64       -0.01
  sub68             GreenRoof            46.59      0.00      0.00      0.00      0.00      7.05     53.64       -0.01
  sub69             GreenRoof            46.59      0.00      0.00      0.00      0.00      7.05     53.64       -0.01
  sub70             GreenRoof            46.59      0.00      0.00      0.00      0.00      7.05     53.64       -0.01
  sub71             GreenRoof            46.59      0.00      0.00      0.00      0.00      7.05     53.64       -0.01
  sub72             GreenRoof            46.59      0.00      0.00      0.00      0.00      7.05     53.64       -0.01
  
  ******************
  Node Depth Summary
  ******************
  
  ---------------------------------------------------------------------------------
                                 Average  Maximum  Maximum  Time of Max    Reported
                                   Depth    Depth      HGL   Occurrence   Max Depth
  Node                 Type       Meters   Meters   Meters  days hr:min      Meters
  ---------------------------------------------------------------------------------
  WS02001211           JUNCTION     0.76     0.78     5.62     0  03:15        0.78
  WS02001212           JUNCTION     0.46     0.49     5.55     0  03:23        0.49
  WS02001213           JUNCTION     0.68     0.73     5.49     0  03:22        0.73
  WS02003059           JUNCTION     0.72     0.78     5.47     0  03:22        0.78
  WS02003060           JUNCTION     0.37     0.47     5.41     0  03:21        0.47
  WS02003066           JUNCTION     0.15     0.27     5.82     0  03:20        0.27
  WS02003067           JUNCTION     0.41     0.65     5.97     0  03:20        0.65
  WS02003069           JUNCTION     0.42     0.54     5.12     0  03:22        0.54
  WS02003072           JUNCTION     0.48     0.60     4.97     0  03:22        0.60
  WS02003073           JUNCTION     0.29     0.37     4.43     0  03:23        0.37
  WS02004138           JUNCTION     0.19     0.20     7.45     0  00:00        0.19
  WS02004139           JUNCTION     0.71     0.73     5.64     0  03:24        0.73
  WS02004401           JUNCTION     0.50     0.75     6.75     0  02:32        0.75
  WS02004402           JUNCTION     0.53     0.78     6.74     0  02:32        0.78
  WS02004403           JUNCTION     0.56     0.80     6.73     0  02:33        0.80
  WS02004404           JUNCTION     0.63     0.88     6.73     0  02:33        0.88
  WS02004405           JUNCTION     0.63     0.88     6.73     0  02:33        0.87
  WS02004406           JUNCTION     0.65     0.88     6.71     0  02:33        0.88
  WS02004407           JUNCTION     0.13     0.26     6.57     0  02:33        0.26
  WS02004409           JUNCTION     0.28     0.58     6.35     0  03:18        0.57
  WS02004410           JUNCTION     0.31     0.59     6.31     0  03:19        0.59
  WS02004411           JUNCTION     0.34     0.61     6.29     0  03:19        0.61
  WS02004412           JUNCTION     0.36     0.62     6.26     0  03:19        0.62
  WS02004413           JUNCTION     0.52     0.79     6.26     0  03:20        0.79
  WS02006109           JUNCTION     0.56     0.84     7.45     0  02:06        0.83
  WS02006110           JUNCTION     0.57     0.82     7.41     0  02:13        0.82
  WS02006111           JUNCTION     0.14     0.25     6.96     0  02:31        0.25
  WS02006112           JUNCTION     0.65     0.93     6.82     0  02:31        0.93
  WS02006113           JUNCTION     0.21     0.39     7.29     0  02:14        0.39
  WS02006115           JUNCTION     0.38     0.65     6.78     0  02:32        0.65
  WS02006116           JUNCTION     0.47     0.73     6.77     0  02:32        0.73
  WS02006228           JUNCTION     0.55     0.85     7.50     0  02:09        0.85
  WS02006229           JUNCTION     0.52     0.83     7.52     0  02:06        0.83
  WS02006230           JUNCTION     0.50     0.86     7.60     0  02:13        0.86
  WS02006231           JUNCTION     0.31     0.60     7.72     0  02:12        0.60
  WS02006232           JUNCTION     0.43     0.75     7.79     0  01:57        0.75
  WS02006234           JUNCTION     0.34     0.71     7.87     0  02:12        0.71
  WS02006235           JUNCTION     0.38     0.76     7.93     0  02:11        0.76
  WS02006238           JUNCTION     0.40     0.81     7.95     0  02:03        0.80
  WS02006239           JUNCTION     0.38     0.81     8.02     0  02:08        0.80
  WS02006240           JUNCTION     0.37     0.79     8.08     0  02:07        0.79
  WS02006242           JUNCTION     0.43     0.90     8.17     0  02:01        0.90
  WS02006243           JUNCTION     0.37     0.84     8.26     0  02:12        0.84
  WS02006245           JUNCTION     0.38     0.86     8.34     0  02:05        0.85
  WS02006247           JUNCTION     0.40     0.89     8.39     0  02:10        0.89
  WS02006248           JUNCTION     0.37     0.86     8.44     0  02:07        0.85
  WS02006249           JUNCTION     0.40     0.93     8.52     0  02:11        0.93
  WS02006251           JUNCTION     0.40     0.91     8.58     0  02:11        0.91
  WS02006252           JUNCTION     0.28     1.50     9.74     0  00:00        0.59
  WS02006256           JUNCTION     0.61     2.35     9.28     0  00:00        2.35
  WSF200               JUNCTION     0.12     0.25     5.48     0  03:21        0.25
  YS02001580           JUNCTION     0.06     1.05     9.59     0  01:59        0.77
  YS02001583           JUNCTION     0.09     1.14     9.64     0  01:59        0.82
  YS02001586           JUNCTION     0.15     1.13     9.30     0  01:58        1.13
  YS02001590           JUNCTION     0.23     1.40     9.26     0  01:59        1.38
  YS02001593           JUNCTION     0.17     1.37     9.23     0  01:59        1.29
  YS02001596           JUNCTION     0.28     1.71     9.13     0  01:59        1.66
  YS02001600           JUNCTION     0.51     1.87     9.00     0  01:59        1.86
  YS02001601           JUNCTION     0.76     2.06     8.90     0  01:58        2.06
  YS02001602           JUNCTION     0.68     1.87     8.77     0  01:58        1.87
  YS02001605           JUNCTION     0.66     1.77     8.68     0  02:12        1.77
  YS02001607           JUNCTION     0.66     1.65     8.49     0  02:04        1.64
  YS02001610           JUNCTION     0.70     1.68     8.48     0  01:59        1.68
  YS02001613           JUNCTION     0.66     1.67     8.51     0  02:01        1.67
  YS02001616           JUNCTION     0.60     1.61     8.52     0  01:59        1.61
  YS02001619           JUNCTION     0.58     1.61     8.54     0  01:59        1.61
  YS02001622           JUNCTION     0.59     1.61     8.52     0  01:59        1.61
  YS02001625           JUNCTION     0.85     1.78     8.38     0  01:58        1.78
  YS02001629           JUNCTION     0.87     1.85     8.40     0  01:58        1.85
  YS02001633           JUNCTION     0.95     2.08     8.53     0  01:59        2.08
  YS02001641           JUNCTION     0.94     1.96     8.40     0  02:04        1.96
  YS02001644           JUNCTION     0.94     1.92     8.35     0  02:04        1.92
  YS02001647           JUNCTION     0.75     1.76     8.37     0  02:04        1.74
  YS02001649           JUNCTION     0.92     1.96     8.35     0  02:04        1.96
  YS02001652           JUNCTION     0.74     2.03     8.62     0  02:04        2.03
  YS02001655           JUNCTION     0.54     2.03     8.88     0  02:04        2.03
  YS02001658           JUNCTION     0.32     1.80     8.94     0  02:04        1.80
  YS02001661           JUNCTION     0.14     0.72     8.12     0  02:03        0.61
  YS02001664           JUNCTION     0.04     0.27     8.19     0  02:02        0.27
  YS02001745           JUNCTION     0.04     0.40     7.92     0  02:03        0.24
  YS02001748           JUNCTION     0.36     0.83     7.91     0  02:03        0.81
  YS02001751           JUNCTION     0.51     1.21     8.09     0  02:02        1.00
  YS02001754           JUNCTION     0.72     1.41     8.01     0  02:04        1.32
  YS02001757           JUNCTION     1.01     1.85     8.11     0  02:04        1.79
  YS02001759           JUNCTION     0.92     1.87     8.24     0  02:04        1.76
  YS02001762           JUNCTION     0.89     1.89     8.29     0  02:04        1.78
  YS02001765           JUNCTION     0.85     1.88     8.33     0  02:04        1.79
  YS02001767           JUNCTION     0.82     1.89     8.38     0  02:04        1.83
  YS02001770           JUNCTION     0.83     1.94     8.44     0  02:04        1.94
  YS02001774           JUNCTION     0.89     2.02     8.44     0  02:04        2.02
  YS02001779           JUNCTION     0.66     1.68     8.37     0  02:01        1.68
  YS02001783           JUNCTION     0.46     1.73     7.87     0  02:01        1.69
  YS02001784           JUNCTION     0.51     1.97     8.04     0  02:00        1.97
  YS02001786           JUNCTION     0.52     2.01     8.04     0  02:00        2.01
  YS02001788           JUNCTION     0.54     1.91     7.89     0  02:00        1.91
  YS02001790           JUNCTION     0.78     1.96     7.60     0  02:00        1.96
  YS02001791           JUNCTION     0.89     1.64     7.11     0  02:00        1.64
  YS02001793           JUNCTION     1.37     2.17     7.01     0  01:58        1.99
  YS02001882           JUNCTION     0.25     1.75     8.47     0  02:01        1.61
  YS02001884           JUNCTION     0.34     1.84     8.46     0  02:01        1.72
  YS02001887           JUNCTION     0.42     1.87     8.40     0  02:01        1.83
  YS02001890           JUNCTION     0.45     1.81     8.32     0  02:00        1.81
  YS02001895           JUNCTION     0.23     1.68     8.43     0  02:01        1.68
  YS02001898           JUNCTION     0.23     1.68     8.42     0  02:01        1.68
  YS02001901           JUNCTION     0.34     1.77     8.37     0  02:01        1.73
  YS02001904           JUNCTION     0.32     1.70     8.33     0  02:01        1.63
  YS02001907           JUNCTION     0.64     1.96     8.25     0  02:00        1.96
  YS02001910           JUNCTION     0.44     2.02     8.52     0  02:01        1.94
  YS02001915           JUNCTION     0.25     1.97     8.69     0  02:01        1.89
  YS02001918           JUNCTION     0.12     1.81     8.88     0  02:01        1.81
  YS02001920           JUNCTION     0.20     2.14     9.15     0  02:00        1.92
  YS02001923           JUNCTION     0.09     2.03     9.29     0  02:01        1.71
  YS02001926           JUNCTION     0.12     1.90     9.35     0  02:01        1.54
  YS02001929           JUNCTION     0.06     1.78     9.47     0  02:01        1.30
  YS02006553           JUNCTION     0.64     2.04     8.32     0  02:01        2.00
  YS02006556           JUNCTION     0.62     2.07     8.39     0  02:01        2.07
  YS02006558           JUNCTION     0.66     2.15     8.42     0  02:01        2.15
  YS02006561           JUNCTION     0.14     1.33     7.99     0  02:01        1.31
  YS02163301           JUNCTION     0.90     1.96     8.48     0  01:59        1.96
  YS02163601           JUNCTION     0.99     2.03     8.43     0  02:03        2.03
  YS02164001           JUNCTION     0.93     1.96     8.42     0  02:04        1.96
  CC-1                 OUTFALL      0.00     0.00     0.00     0  00:00        0.00
  CC-2                 OUTFALL      0.00     0.00     0.00     0  00:00        0.00
  JK-1                 OUTFALL      0.00     0.00     0.00     0  00:00        0.00
  JK-2                 OUTFALL      0.00     0.00     0.00     0  00:00        0.00
  WSC                  OUTFALL      0.29     0.37     1.04     0  03:24        0.37
  CC-storage           STORAGE      1.62     2.04     7.54     0  07:31        2.04
  JK-storage           STORAGE      4.59     5.80     6.60     0  01:59        5.80
  XR-storage           STORAGE      0.27     5.00     3.00     0  00:00        4.91
  
  
  *******************
  Node Inflow Summary
  *******************
  
  -------------------------------------------------------------------------------------------------
                                  Maximum  Maximum                  Lateral       Total        Flow
                                  Lateral    Total  Time of Max      Inflow      Inflow     Balance
                                   Inflow   Inflow   Occurrence      Volume      Volume       Error
  Node                 Type           LPS      LPS  days hr:min    10^6 ltr    10^6 ltr     Percent
  -------------------------------------------------------------------------------------------------
  WS02001211           JUNCTION      7.35   389.13     0  03:34       0.212        11.1       0.350
  WS02001212           JUNCTION      0.00   390.85     0  03:36           0        11.1       0.210
  WS02001213           JUNCTION      0.00   392.60     0  03:35           0        11.1       0.244
  WS02003059           JUNCTION      0.00   395.64     0  03:35           0          11       0.338
  WS02003060           JUNCTION     16.53   816.11     0  03:21       0.476        14.5       0.187
  WS02003066           JUNCTION      0.00   411.91     0  03:20           0           3       0.115
  WS02003067           JUNCTION      0.00   411.90     0  03:20           0           3       0.251
  WS02003069           JUNCTION      0.32   816.38     0  03:21     0.00922        14.4       0.197
  WS02003072           JUNCTION      0.00   816.36     0  03:22           0        14.4       0.242
  WS02003073           JUNCTION      1.82   818.17     0  03:23      0.0524        14.4       0.261
  WS02004138           JUNCTION      0.00   380.00     0  00:00           0        10.9       0.059
  WS02004139           JUNCTION      0.32   395.52     0  00:00     0.00924        10.9       0.409
  WS02004401           JUNCTION      0.00   412.40     0  02:32           0         3.2       0.593
  WS02004402           JUNCTION      0.00   412.20     0  02:32           0        3.18       0.567
  WS02004403           JUNCTION      0.00   412.26     0  02:33           0        3.16       0.525
  WS02004404           JUNCTION      0.16   412.26     0  02:33     0.00467        3.15       0.403
  WS02004405           JUNCTION      0.04   412.27     0  02:33      0.0011        3.14       0.603
  WS02004406           JUNCTION      0.00   412.43     0  02:33           0        3.12       0.997
  WS02004407           JUNCTION      0.00   412.12     0  02:33           0        3.09       0.194
  WS02004409           JUNCTION      0.00   412.03     0  02:33           0        3.08       0.395
  WS02004410           JUNCTION      0.00   411.99     0  03:19           0        3.07       0.457
  WS02004411           JUNCTION      0.00   411.97     0  03:19           0        3.06       0.478
  WS02004412           JUNCTION      0.00   411.96     0  03:19           0        3.04       0.531
  WS02004413           JUNCTION      0.00   412.00     0  03:20           0        3.03       0.822
  WS02006109           JUNCTION      1.23   412.32     0  02:07      0.0354         3.3       0.508
  WS02006110           JUNCTION      0.00   411.81     0  02:13           0        3.29       0.507
  WS02006111           JUNCTION      0.00   423.73     0  03:21           0        3.26       0.122
  WS02006112           JUNCTION      0.00   413.81     0  02:31           0        3.26       0.856
  WS02006113           JUNCTION      0.00   412.06     0  02:32           0        3.27       0.243
  WS02006115           JUNCTION      0.00   412.65     0  02:32           0        3.23       0.533
  WS02006116           JUNCTION      0.00   412.47     0  02:32           0        3.21       0.440
  WS02006228           JUNCTION      0.00   412.36     0  02:07           0        3.28       0.304
  WS02006229           JUNCTION      0.00   410.69     0  02:06           0        3.29       0.327
  WS02006230           JUNCTION     10.28   410.74     0  02:12       0.296         3.3       0.330
  WS02006231           JUNCTION      0.00   400.48     0  02:12           0        3.01       0.239
  WS02006232           JUNCTION      0.00   400.47     0  02:12           0        3.03       0.690
  WS02006234           JUNCTION      0.00   401.52     0  02:07           0        3.03       0.023
  WS02006235           JUNCTION      0.00   402.18     0  02:11           0        3.06       0.468
  WS02006238           JUNCTION      0.00   401.21     0  02:05           0        3.03      -0.202
  WS02006239           JUNCTION      0.00   401.41     0  02:07           0        3.03       0.030
  WS02006240           JUNCTION      0.00   400.76     0  01:58           0        3.03       0.122
  WS02006242           JUNCTION      0.00   401.58     0  02:07           0        3.03       0.265
  WS02006243           JUNCTION      0.00   401.52     0  01:59           0        3.04       0.168
  WS02006245           JUNCTION      0.00   401.44     0  02:15           0        3.06       0.547
  WS02006247           JUNCTION      0.00   401.06     0  02:06           0        3.06       0.080
  WS02006248           JUNCTION      0.00   401.09     0  02:11           0        3.06       0.124
  WS02006249           JUNCTION      0.00   465.18     0  07:41           0        3.08       0.449
  WS02006251           JUNCTION      0.08   403.35     0  07:41     0.00222        3.08      -0.000
  WS02006252           JUNCTION      0.00   400.00     0  00:00           0        3.07      -0.065
  WS02006256           JUNCTION      0.00   300.00     0  00:00           0      0.0243      -5.432
  WSF200               JUNCTION      0.00   411.91     0  03:20           0        2.99       0.097
  YS02001580           JUNCTION      0.00   133.33     0  01:58           0     0.00443       4.188
  YS02001583           JUNCTION      0.00   215.31     0  01:59           0      0.0148      -7.663
  YS02001586           JUNCTION    415.09   415.09     0  02:04       0.963       0.975       0.152
  YS02001590           JUNCTION      0.00   318.05     0  02:05           0       0.913      -0.024
  YS02001593           JUNCTION      0.00   318.22     0  02:09           0       0.914       0.026
  YS02001596           JUNCTION      0.00   318.08     0  02:09           0       0.914       0.030
  YS02001600           JUNCTION      0.00   318.09     0  02:02           0       0.915       0.366
  YS02001601           JUNCTION    742.06  1059.42     0  02:03        1.31        2.22       0.387
  YS02001602           JUNCTION      0.00   546.09     0  01:58           0        1.69       0.510
  YS02001605           JUNCTION      0.00   545.57     0  01:58           0        1.63       0.792
  YS02001607           JUNCTION      0.00   545.15     0  01:58           0        1.62       0.974
  YS02001610           JUNCTION      0.00   538.84     0  01:58           0        1.61       0.997
  YS02001613           JUNCTION      0.00   544.85     0  01:58           0        1.48       1.094
  YS02001616           JUNCTION      0.00   548.51     0  01:58           0        1.47       0.894
  YS02001619           JUNCTION    716.55   948.06     0  01:58        1.48        2.95       0.434
  YS02001622           JUNCTION      0.00   940.41     0  01:58           0        2.94       0.629
  YS02001625           JUNCTION      0.00   937.71     0  02:00           0        2.92       1.346
  YS02001629           JUNCTION      0.00   937.70     0  02:00           0        2.71       0.579
  YS02001633           JUNCTION    570.86  1439.15     0  02:00       0.987        3.66       0.860
  YS02001641           JUNCTION      0.00  1430.24     0  02:00           0        3.59       0.576
  YS02001644           JUNCTION    488.69  1871.23     0  02:00       0.808        4.38       0.591
  YS02001647           JUNCTION      0.00  1870.02     0  02:00           0        4.34       0.574
  YS02001649           JUNCTION      0.00  2182.86     0  02:00           0        5.05       0.736
  YS02001652           JUNCTION      0.00   555.67     0  02:04           0       0.761       2.607
  YS02001655           JUNCTION      0.15   556.68     0  02:04     0.00443       0.771       1.870
  YS02001658           JUNCTION      0.00   743.15     0  02:03           0       0.767       0.652
  YS02001661           JUNCTION      0.00   494.20     0  02:02           0       0.764       0.008
  YS02001664           JUNCTION    494.59   494.59     0  02:02       0.764       0.764      -0.010
  YS02001745           JUNCTION    307.17   307.17     0  02:02       0.443       0.443       0.369
  YS02001748           JUNCTION      0.04   414.39     0  02:03      0.0013       0.445       1.030
  YS02001751           JUNCTION      0.01   443.49     0  02:03    0.000317       0.449       3.314
  YS02001754           JUNCTION      0.26   394.14     0  02:03     0.00749       0.448       4.462
  YS02001757           JUNCTION      0.00  3191.13     0  02:04           0        6.88       1.408
  YS02001759           JUNCTION    445.89  1162.40     0  02:02       0.646        1.47       1.573
  YS02001762           JUNCTION      0.00   705.38     0  02:02           0       0.845       2.569
  YS02001765           JUNCTION      0.00   692.14     0  02:02           0       0.869       2.854
  YS02001767           JUNCTION      0.54   681.05     0  02:02      0.0154       0.904       3.986
  YS02001770           JUNCTION    611.06   671.31     0  02:02       0.956       0.968       3.164
  YS02001774           JUNCTION      0.00   366.47     0  02:01           0      0.0602      70.929
  YS02001779           JUNCTION      0.01   375.30     0  02:01    0.000144      0.0237     102.761
  YS02001783           JUNCTION      0.00   969.94     0  02:03           0        2.63       0.260
  YS02001784           JUNCTION      1.06   971.67     0  02:03      0.0305        2.66       0.403
  YS02001786           JUNCTION      0.06   970.87     0  02:03     0.00162        2.65       0.497
  YS02001788           JUNCTION      0.07   970.58     0  02:03     0.00204        2.64       0.513
  YS02001790           JUNCTION      0.15   971.29     0  02:02     0.00446        2.63       0.647
  YS02001791           JUNCTION      0.00   971.10     0  02:02           0        2.61       0.542
  YS02001793           JUNCTION      0.00   971.74     0  02:02           0         2.6       0.605
  YS02001882           JUNCTION      0.00    55.51     0  01:59           0      0.0123       4.515
  YS02001884           JUNCTION      0.00   109.29     0  01:59           0      0.0481       5.230
  YS02001887           JUNCTION    480.44   495.41     0  02:01       0.676       0.709       0.608
  YS02001890           JUNCTION      0.00   500.35     0  02:00           0       0.669       0.745
  YS02001895           JUNCTION      0.00   508.49     0  02:00           0       0.661       0.223
  YS02001898           JUNCTION      0.00   514.23     0  02:00           0       0.659       0.026
  YS02001901           JUNCTION      0.00   525.55     0  02:00           0       0.662       0.473
  YS02001904           JUNCTION      0.00   526.75     0  02:00           0       0.666       0.411
  YS02001907           JUNCTION      0.00  1410.37     0  02:02           0        2.04       0.868
  YS02001910           JUNCTION      0.00   952.86     0  02:02           0        1.38       0.526
  YS02001915           JUNCTION    498.07   953.11     0  02:02       0.825        1.43       0.070
  YS02001918           JUNCTION      0.00   700.32     0  02:00           0       0.632      -0.078
  YS02001920           JUNCTION      2.87   663.92     0  02:01      0.0827       0.611      -0.019
  YS02001923           JUNCTION      0.04   964.49     0  02:01     0.00109       0.512      -0.312
  YS02001926           JUNCTION      0.05  1085.76     0  02:01      0.0015       0.488      -0.068
  YS02001929           JUNCTION    254.63   796.94     0  02:01       0.465        0.47      -0.392
  YS02006553           JUNCTION      0.00   670.61     0  02:12           0        1.74       0.657
  YS02006556           JUNCTION      0.00   671.47     0  02:13           0        1.75       0.451
  YS02006558           JUNCTION    609.43   971.04     0  02:02       0.934        2.66       0.124
  YS02006561           JUNCTION      0.00   969.89     0  02:02           0        2.63      -0.004
  YS02163301           JUNCTION      0.00   936.96     0  02:00           0         2.7       0.842
  YS02163601           JUNCTION      0.11  1437.46     0  02:00     0.00317        3.63       0.822
  YS02164001           JUNCTION      0.00  1434.74     0  02:00           0         3.6       0.537
  CC-1                 OUTFALL       0.00   683.00     0  00:00           0       0.208       0.000
  CC-2                 OUTFALL       0.00   683.00     0  00:00           0       0.208       0.000
  JK-1                 OUTFALL       0.00  1000.00     0  00:00           0      0.0791       0.000
  JK-2                 OUTFALL       0.00  1000.00     0  00:00           0      0.0791       0.000
  WSC                  OUTFALL       0.00   818.15     0  03:24           0        14.4       0.000
  CC-storage           STORAGE       0.00  3193.59     0  02:04           0        8.98       0.371
  JK-storage           STORAGE       0.00   972.61     0  02:02           0        2.73       0.578
  XR-storage           STORAGE     200.00   200.00     0  00:00        5.76        6.36     -41.886
  
  
  **********************
  Node Surcharge Summary
  **********************
  
  Surcharging occurs when water rises above the top of the highest conduit.
  ---------------------------------------------------------------------
                                               Max. Height   Min. Depth
                                   Hours       Above Crown    Below Rim
  Node                 Type      Surcharged         Meters       Meters
  ---------------------------------------------------------------------
  WS02006109           JUNCTION        1.60          0.016        1.804
  WS02006228           JUNCTION        1.59          0.019        2.181
  WS02006229           JUNCTION        1.61          0.028        2.422
  WS02006232           JUNCTION        1.66          0.051        1.429
  WS02006235           JUNCTION        1.61          0.054        1.236
  WS02006238           JUNCTION        1.63          0.087        1.343
  WS02006239           JUNCTION        1.61          0.066        1.224
  WS02006240           JUNCTION        1.62          0.078        1.312
  WS02006242           JUNCTION        1.70          0.175        0.645
  WS02006243           JUNCTION        1.63          0.133        0.637
  WS02006245           JUNCTION        1.63          0.146        0.704
  WS02006247           JUNCTION        1.65          0.181        0.579
  WS02006248           JUNCTION        1.63          0.137        0.243
  WS02006249           JUNCTION        1.65          0.225        0.165
  WS02006252           JUNCTION        2.01          1.100        0.000
  WS02006256           JUNCTION        3.23          2.050        0.000
  YS02001580           JUNCTION        0.31          0.450        0.000
  YS02001583           JUNCTION        0.32          0.500        0.000
  YS02001586           JUNCTION        0.45          0.510        0.000
  YS02001590           JUNCTION        0.52          0.750        0.000
  YS02001593           JUNCTION        0.52          0.752        0.088
  YS02001596           JUNCTION        0.63          0.981        0.089
  YS02001600           JUNCTION        0.83          1.190        0.000
  YS02001601           JUNCTION        6.09          1.440        0.000
  YS02001602           JUNCTION        5.65          1.270        0.000
  YS02001605           JUNCTION        5.59          1.175        0.005
  YS02001607           JUNCTION        0.55          0.645        0.035
  YS02001610           JUNCTION        0.59          0.680        0.000
  YS02001613           JUNCTION        0.55          0.667        0.033
  YS02001616           JUNCTION        0.50          0.610        0.000
  YS02001619           JUNCTION        0.47          0.610        0.000
  YS02001622           JUNCTION        0.48          0.612        0.008
  YS02001625           JUNCTION        0.99          0.780        0.000
  YS02001629           JUNCTION        0.42          0.470        0.000
  YS02001633           JUNCTION        5.82          1.060        0.000
  YS02001641           JUNCTION        6.04          0.960        0.140
  YS02001644           JUNCTION        6.03          0.920        0.000
  YS02001647           JUNCTION        0.48          0.760        0.140
  YS02001649           JUNCTION        5.99          0.965        0.085
  YS02001652           JUNCTION        0.29          0.998        0.132
  YS02001655           JUNCTION        0.09          1.031        0.169
  YS02001658           JUNCTION        0.01          0.796        0.504
  YS02001751           JUNCTION        0.01          0.210        0.990
  YS02001754           JUNCTION        0.12          0.356        0.794
  YS02001757           JUNCTION        5.99          0.853        0.357
  YS02001759           JUNCTION        5.98          0.874        0.336
  YS02001762           JUNCTION        5.98          0.895        0.255
  YS02001765           JUNCTION        5.98          0.885        0.215
  YS02001767           JUNCTION        5.55          0.893        0.137
  YS02001770           JUNCTION        4.17          0.913        0.007
  YS02001774           JUNCTION        5.98          1.020        0.030
  YS02001779           JUNCTION        0.13          0.680        0.000
  YS02001783           JUNCTION        0.44          0.930        0.670
  YS02001784           JUNCTION        0.45          1.170        0.320
  YS02001786           JUNCTION        0.44          1.213        0.217
  YS02001788           JUNCTION        0.44          1.114        0.366
  YS02001790           JUNCTION        6.01          1.157        0.000
  YS02001791           JUNCTION        6.02          0.842        1.078
  YS02001793           JUNCTION        6.03          1.174        1.426
  YS02001882           JUNCTION        0.31          0.753        0.077
  YS02001884           JUNCTION        0.32          0.779        0.091
  YS02001887           JUNCTION        0.35          0.815        0.135
  YS02001890           JUNCTION        0.36          0.760        0.000
  YS02001895           JUNCTION        0.30          0.681        0.069
  YS02001898           JUNCTION        0.29          0.651        0.089
  YS02001901           JUNCTION        0.34          0.766        0.104
  YS02001904           JUNCTION        0.33          0.695        0.155
  YS02001907           JUNCTION        0.51          0.950        0.000
  YS02001910           JUNCTION        0.38          1.017        0.083
  YS02001915           JUNCTION        0.31          0.970        0.030
  YS02001918           JUNCTION        0.23          0.810        0.000
  YS02001920           JUNCTION        0.24          1.140        0.000
  YS02001923           JUNCTION        0.01          0.820        0.000
  YS02001926           JUNCTION        0.01          0.900        0.000
  YS02001929           JUNCTION        0.01          0.780        0.000
  YS02006553           JUNCTION        0.52          1.036        0.154
  YS02006556           JUNCTION        0.44          1.034        0.316
  YS02006558           JUNCTION        0.44          1.049        0.351
  YS02006561           JUNCTION        0.27          0.527        0.623
  YS02163301           JUNCTION        4.83          0.960        0.070
  YS02163601           JUNCTION        6.06          1.034        0.046
  YS02164001           JUNCTION        5.91          0.960        0.140
  
  
  *********************
  Node Flooding Summary
  *********************
  
  Flooding refers to all water that overflows a node, whether it ponds or not.
  --------------------------------------------------------------------------
                                                             Total   Maximum
                                 Maximum   Time of Max       Flood    Ponded
                        Hours       Rate    Occurrence      Volume     Depth
  Node                 Flooded       LPS   days hr:min    10^6 ltr    Meters
  --------------------------------------------------------------------------
  WS02006252              0.01    245.63      0  00:00       0.000     0.000
  WS02006256              0.02    293.19      0  00:00       0.005     0.000
  YS02001580              0.01     88.95      0  01:59       0.000     0.000
  YS02001586              0.22    128.76      0  01:59       0.049     0.000
  YS02001590              0.01      3.17      0  01:59       0.000     0.000
  YS02001600              0.01      7.49      0  01:59       0.000     0.000
  YS02001601              0.39    661.60      0  02:03       0.521     0.000
  YS02001602              0.30     62.25      0  02:11       0.056     0.000
  YS02001610              0.23    224.33      0  02:04       0.120     0.000
  YS02001616              0.01      6.77      0  01:59       0.000     0.000
  YS02001619              0.01     13.57      0  01:59       0.000     0.000
  YS02001625              0.20    531.86      0  02:04       0.178     0.000
  YS02001629              0.01     95.09      0  01:58       0.001     0.000
  YS02001633              0.01     10.85      0  01:59       0.000     0.000
  YS02001644              0.01     36.15      0  02:04       0.000     0.000
  YS02001779              0.01    292.16      0  02:01       0.002     0.000
  YS02001790              0.01     41.53      0  02:00       0.000     0.000
  YS02001890              0.02     88.14      0  02:01       0.003     0.000
  YS02001907              0.18   1041.93      0  02:02       0.277     0.000
  YS02001918              0.01    244.98      0  02:01       0.003     0.000
  YS02001920              0.01    259.53      0  02:00       0.000     0.000
  YS02001923              0.01    338.38      0  02:01       0.002     0.000
  YS02001926              0.01    115.52      0  02:01       0.001     0.000
  YS02001929              0.01    507.05      0  02:01       0.002     0.000
  JK-storage              6.01    971.93      0  02:02       2.244     0.000
  
  
  **********************
  Storage Volume Summary
  **********************
  
  ------------------------------------------------------------------------------------------------
                         Average    Avg   Evap  Exfil     Maximum    Max    Time of Max    Maximum
                          Volume   Pcnt   Pcnt   Pcnt      Volume   Pcnt     Occurrence    Outflow
  Storage Unit           1000 m³   Full   Loss   Loss     1000 m³   Full    days hr:min        LPS
  ------------------------------------------------------------------------------------------------
  CC-storage               4.522   70.5    0.0    0.0       5.689   88.7       0  07:31    1783.53
  JK-storage               0.231   79.2    0.0    0.0       0.291  100.0       0  01:59    2300.00
  XR-storage               0.032    2.2    0.0    0.0       0.600   41.7       0  00:00     380.00
  
  
  ***********************
  Outfall Loading Summary
  ***********************
  
  -----------------------------------------------------------
                         Flow       Avg       Max       Total
                         Freq      Flow      Flow      Volume
  Outfall Node           Pcnt       LPS       LPS    10^6 ltr
  -----------------------------------------------------------
  CC-1                   1.17    683.00    683.00       0.208
  CC-2                   1.17    683.00    683.00       0.208
  JK-1                   1.09    347.46   1000.00       0.079
  JK-2                   1.09    347.46   1000.00       0.079
  WSC                   99.93    536.32    818.15      14.387
  -----------------------------------------------------------
  System                20.89   2597.25   3366.35      14.962
  
  
  ********************
  Link Flow Summary
  ********************
  
  -----------------------------------------------------------------------------
                                 Maximum  Time of Max   Maximum    Max/    Max/
                                  |Flow|   Occurrence   |Veloc|    Full    Full
  Link                 Type          LPS  days hr:min     m/sec    Flow   Depth
  -----------------------------------------------------------------------------
  1                    CONDUIT    818.15     0  03:24      3.15    0.28    0.37
  WS02001211WS02001212 CONDUIT    390.85     0  03:36      0.78    0.30    0.64
  WS02001212WS02001213 CONDUIT    392.60     0  03:35      1.32    0.61    0.45
  WS02001213WS02003059 CONDUIT    395.64     0  03:35      0.85    0.65    0.75
  WS02003059WS02003060 CONDUIT    399.93     0  03:35      0.95    0.26    0.63
  WS02003060WS02003069 CONDUIT    816.06     0  03:21      1.80    0.32    0.42
  WS02003066WSF200     CONDUIT    411.91     0  03:20      2.69    0.07    0.19
  WS02003067WS02003066 CONDUIT    411.91     0  03:20      1.04    0.13    0.38
  WS02003069WS02003072 CONDUIT    816.36     0  03:22      1.55    0.39    0.47
  WS02003072WS02003073 CONDUIT    816.34     0  03:23      1.64    1.76    0.45
  WS02004138WS02004139 CONDUIT    395.20     0  00:00      3.65    0.08    0.43
  WS02004139WS02001211 CONDUIT    381.78     0  03:34      0.91    0.48    0.59
  WS02004401WS02004402 CONDUIT    412.20     0  02:32      0.99    0.49    0.77
  WS02004402WS02004403 CONDUIT    412.26     0  02:33      0.99    0.59    0.79
  WS02004403WS02004404 CONDUIT    412.09     0  02:33      0.93    0.30    0.84
  WS02004404WS02004405 CONDUIT    412.23     0  02:33      1.10    4.04    0.88
  WS02004405WS02004406 CONDUIT    412.43     0  02:33      1.03    0.81    0.88
  WS02004406WS02004407 CONDUIT    412.12     0  02:33      0.89    0.18    0.57
  WS02004407WS02004409 CONDUIT    412.03     0  02:33      1.42    0.15    0.42
  WS02004409WS02004410 CONDUIT    411.99     0  03:19      0.92    0.53    0.58
  WS02004410WS02004411 CONDUIT    411.97     0  03:19      0.85    0.56    0.60
  WS02004411WS02004412 CONDUIT    411.96     0  03:19      0.81    0.59    0.61
  WS02004412WS02004413 CONDUIT    412.00     0  03:20      0.70    0.28    0.70
  WS02004413WS02003067 CONDUIT    411.90     0  03:20      0.96    0.18    0.54
  WS02006109WS02006110 CONDUIT    411.81     0  02:13      0.84    0.79    0.94
  WS02006110WS02006113 CONDUIT    412.06     0  02:32      1.03    0.37    0.75
  WS02006111WS02006112 CONDUIT    413.81     0  02:31      1.83    0.20    0.65
  WS02006112WS02006115 CONDUIT    412.65     0  02:32      0.71    0.24    0.78
  WS02006113WS02006111 CONDUIT    423.73     0  03:21      2.25    0.51    0.40
  WS02006115WS02006116 CONDUIT    412.47     0  02:32      0.98    0.53    0.66
  WS02006116WS02004401 CONDUIT    412.40     0  02:32      1.00    0.57    0.74
  WS02006228WS02006109 CONDUIT    411.09     0  02:07      1.06    1.80    1.00
  WS02006229WS02006228 CONDUIT    412.36     0  02:07      1.13    1.37    1.00
  WS02006230WS02006229 CONDUIT    410.69     0  02:06      1.22    9.14    1.00
  WS02006231WS02006230 CONDUIT    400.46     0  02:12      1.37    6.07    0.77
  WS02006232WS02006231 CONDUIT    400.48     0  02:12      1.08    0.84    0.92
  WS02006234WS02006232 CONDUIT    400.47     0  02:12      1.40    0.81    1.00
  WS02006235WS02006234 CONDUIT    401.52     0  02:07      1.29    4.24    0.99
  WS02006238WS02006235 CONDUIT    402.18     0  02:11      1.45    0.90    1.00
  WS02006239WS02006238 CONDUIT    401.21     0  02:05      1.20    1.28    1.00
  WS02006240WS02006239 CONDUIT    401.41     0  02:07      1.32    1.26    1.00
  WS02006242WS02006240 CONDUIT    400.76     0  01:58      1.17    1.59    1.00
  WS02006243WS02006242 CONDUIT    401.58     0  02:07      1.43    0.86    1.00
  WS02006245WS02006243 CONDUIT    401.52     0  01:59      1.45    1.19    1.00
  WS02006247WS02006245 CONDUIT    401.44     0  02:15      1.43    3.18    1.00
  WS02006248WS02006247 CONDUIT    401.06     0  02:06      1.43    0.87    1.00
  WS02006249WS02006248 CONDUIT    401.09     0  02:11      1.40    2.20    1.00
  WS02006251WS02006249 CONDUIT    465.18     0  07:41      1.99    1.34    1.00
  WS02006252WS02006251 CONDUIT    403.28     0  07:41     24.55    1.48    1.00
  WS02006256WS02006235 CONDUIT    288.91     0  00:00      4.23    3.06    1.00
  WSF200WS02003060     CONDUIT    411.92     0  03:21      1.43    0.09    0.30
  YS02001580YS02001583 CONDUIT    133.33     0  01:58      0.79    0.52    1.00
  YS02001583YS02001586 CONDUIT    189.96     0  01:58      0.81    0.29    1.00
  YS02001586YS02001590 CONDUIT    318.05     0  02:05      1.28    0.56    1.00
  YS02001590YS02001593 CONDUIT    318.22     0  02:09      1.13    2.00    1.00
  YS02001593YS02001596 CONDUIT    318.08     0  02:09      1.62    0.50    1.00
  YS02001596YS02001600 CONDUIT    318.09     0  02:02      1.13    0.62    1.00
  YS02001600YS02001601 CONDUIT    318.06     0  02:10      1.12    0.55    1.00
  YS02001601YS02001602 CONDUIT    546.09     0  01:58      1.93    1.97    1.00
  YS02001602YS02001605 CONDUIT    545.57     0  01:58      1.93   11.55    1.00
  YS02001605YS02001607 CONDUIT    545.15     0  01:58      1.93    2.99    1.00
  YS02001607YS02001610 CONDUIT    538.84     0  01:58      0.69    0.51    1.00
  YS02001610YS02001613 CONDUIT    544.85     0  01:58      0.69    0.63    1.00
  YS02001613YS02001616 CONDUIT    548.51     0  01:58      0.70    0.47    1.00
  YS02001616YS02001619 CONDUIT    510.65     0  01:58      0.66    0.89    1.00
  YS02001619YS02001622 CONDUIT    940.41     0  01:58      1.22    1.39    1.00
  YS02001622YS02001625 CONDUIT    937.71     0  02:00      1.19    0.50    1.00
  YS02001625YS02001629 CONDUIT    937.70     0  02:00      1.19    0.45    1.00
  YS02001629YS02163301 CONDUIT    936.96     0  02:00      1.19    1.15    1.00
  YS02001633YS02163601 CONDUIT   1437.35     0  02:00      1.83    1.51    1.00
  YS02001641YS02001644 CONDUIT   1429.40     0  02:00      1.82    4.62    1.00
  YS02001644YS02001647 CONDUIT   1870.02     0  02:00      2.41    1.10    1.00
  YS02001647YS02001649 CONDUIT   1870.86     0  02:00      2.42    0.99    1.00
  YS02001649YS02001757 CONDUIT   2140.46     0  02:00      2.73    1.30    1.00
  YS02001652YS02001649 CONDUIT    557.42     0  02:04      0.78    0.28    1.00
  YS02001655YS02001652 CONDUIT    555.67     0  02:04      1.36    0.27    1.00
  YS02001658YS02001655 CONDUIT    556.53     0  02:04      1.98    0.24    1.00
  YS02001661YS02001658 CONDUIT    743.15     0  02:03      2.39    0.29    0.77
  YS02001664YS02001661 CONDUIT    494.20     0  02:02      2.29    0.15    0.49
  YS02001745YS02001748 CONDUIT    414.35     0  02:03      2.22    0.16    0.54
  YS02001748YS02001751 CONDUIT    443.48     0  02:03      1.78    0.22    0.91
  YS02001751YS02001754 CONDUIT    393.88     0  02:03      1.47    0.19    1.00
  YS02001754YS02001757 CONDUIT    391.73     0  02:03      0.50    0.16    1.00
  YS02001757CaochengTiaoxuchi CONDUIT   3193.59     0  02:04      4.07    1.38    1.00
  YS02001759YS02001757 CONDUIT   1169.04     0  02:02      1.49    0.83    1.00
  YS02001762YS02001759 CONDUIT    717.25     0  02:02      0.91    0.83    1.00
  YS02001765YS02001762 CONDUIT    705.38     0  02:02      0.90    0.66    1.00
  YS02001767YS02001765 CONDUIT    692.14     0  02:02      0.88    0.87    1.00
  YS02001770YS02001767 CONDUIT    680.51     0  02:02      0.87    2.70    1.00
  YS02001774YS02001770 CONDUIT    366.47     0  02:01      0.47    0.23    1.00
  YS02001779YS02001774 CONDUIT    375.29     0  02:01      0.48    0.19    1.00
  YS02001783YS02001784 CONDUIT    970.61     0  02:03      1.93    1.34    1.00
  YS02001784YS02001785 CONDUIT    970.82     0  02:03      1.93    2.26    1.00
  YS02001786YS02001788 CONDUIT    970.50     0  02:03      2.23    1.87    1.00
  YS02001788YS02001790 CONDUIT    971.13     0  02:02      2.32    0.72    1.00
  YS02001790YS02001791 CONDUIT    971.10     0  02:02      2.75    1.06    1.00
  YS02001791YS02001793 CONDUIT    971.74     0  02:02      5.10    0.42    1.00
  YS02001793JiankangQianchi CONDUIT    972.61     0  02:02      1.54    0.08    1.00
  YS02001882YS02001884 CONDUIT     55.51     0  01:59      0.11    0.06    1.00
  YS02001884YS02001887 CONDUIT    109.29     0  01:59      0.14    0.15    1.00
  YS02001887YS02001890 CONDUIT    500.35     0  02:00      0.64    0.86    1.00
  YS02001890YS02001895 CONDUIT    508.49     0  02:00      0.65    0.24    1.00
  YS02001895YS02001898 CONDUIT    514.23     0  02:00      0.65    0.89    1.00
  YS02001898YS02001901 CONDUIT    525.55     0  02:00      0.67    0.34    1.00
  YS02001901YS02001904 CONDUIT    526.75     0  02:00      0.67    0.82    1.00
  YS02001904YS02001907 CONDUIT    526.65     0  02:00      0.67    0.18    1.00
  YS02001907YS02006553 CONDUIT    670.61     0  02:12      0.75    0.79    1.00
  YS02001910YS02001907 CONDUIT    954.65     0  02:02      1.22    0.54    1.00
  YS02001915YS02001910 CONDUIT    952.86     0  02:02      1.21    0.47    1.00
  YS02001918YS02001915 CONDUIT    700.32     0  02:00      0.92    0.39    1.00
  YS02001920YS02001918 CONDUIT    661.05     0  02:01      0.84    0.64    1.00
  YS02001923YS02001920 CONDUIT    687.21     0  02:01      0.93    0.31    1.00
  YS02001926YS02001923 CONDUIT    850.13     0  02:01      1.37    1.21    1.00
  YS02001929YS02001926 CONDUIT    553.93     0  02:01      1.22    0.26    1.00
  YS02006553YS02006556 CONDUIT    671.47     0  02:13      0.85    0.57    1.00
  YS02006556YS02006558 CONDUIT    673.05     0  02:13      0.86    0.53    1.00
  YS02006558YS02006561 CONDUIT    969.89     0  02:02      3.54    2.14    1.00
  YS02006561YS02001783 CONDUIT    969.94     0  02:03      2.16    0.50    1.00
  YS02163301YS02001633 CONDUIT    936.56     0  02:00      1.19    0.88    1.00
  YS02163601YS02164001 CONDUIT   1434.74     0  02:00      1.83    1.27    1.00
  YS02164001YS02001641 CONDUIT   1430.24     0  02:00      1.82    1.95    1.00
  CC-R1                PUMP       683.00     0  00:00              1.00
  CC-R2                PUMP       683.00     0  00:00              1.00
  CC-S1                PUMP       200.00     0  00:00              1.00
  CC-S2                PUMP       200.00     0  00:00              1.00
  JK-R1                PUMP      1000.00     0  00:00              1.00
  JK-R2                PUMP      1000.00     0  00:00              1.00
  JK-S                 PUMP       300.00     0  00:00              1.00
  XR-1                 PUMP        95.00     0  00:00              1.00
  XR-2                 PUMP        95.00     0  00:00              1.00
  XR-3                 PUMP        95.00     0  00:00              1.00
  XR-4                 PUMP        95.00     0  00:00              1.00
  
  
  ***************************
  Flow Classification Summary
  ***************************
  
  -------------------------------------------------------------------------------------
                      Adjusted    ---------- Fraction of Time in Flow Class ---------- 
                       /Actual         Up    Down  Sub   Sup   Up    Down  Norm  Inlet 
  Conduit               Length    Dry  Dry   Dry   Crit  Crit  Crit  Crit  Ltd   Ctrl  
  -------------------------------------------------------------------------------------
  1                       1.00   0.00  0.00  0.00  0.00  1.00  0.00  0.00  0.18  0.00
  WS02001211WS02001212    1.00   0.00  0.00  0.00  1.00  0.00  0.00  0.00  0.00  0.00
  WS02001212WS02001213    1.00   0.00  0.00  0.00  0.35  0.00  0.64  0.00  0.00  0.00
  WS02001213WS02003059    1.00   0.00  0.00  0.00  0.99  0.00  0.00  0.00  0.00  0.00
  WS02003059WS02003060    1.00   0.00  0.00  0.00  1.00  0.00  0.00  0.00  0.00  0.00
  WS02003060WS02003069    1.00   0.00  0.00  0.00  0.99  0.01  0.00  0.00  0.00  0.00
  WS02003066WSF200        1.00   0.02  0.10  0.00  0.00  0.88  0.00  0.00  0.86  0.00
  WS02003067WS02003066    1.00   0.10  0.02  0.00  0.89  0.00  0.00  0.00  0.00  0.00
  WS02003069WS02003072    1.00   0.00  0.00  0.00  0.99  0.01  0.00  0.00  0.00  0.00
  WS02003072WS02003073    1.00   0.00  0.00  0.00  0.00  0.00  0.00  1.00  0.00  0.00
  WS02004138WS02004139    1.00   0.00  0.00  0.00  0.99  0.01  0.00  0.00  1.00  0.00
  WS02004139WS02001211    1.00   0.00  0.00  0.00  1.00  0.00  0.00  0.00  0.00  0.00
  WS02004401WS02004402    1.00   0.02  0.00  0.00  0.98  0.00  0.00  0.00  0.00  0.00
  WS02004402WS02004403    1.00   0.02  0.00  0.00  0.98  0.00  0.00  0.00  0.00  0.00
  WS02004403WS02004404    1.00   0.00  0.03  0.00  0.97  0.00  0.00  0.00  0.00  0.00
  WS02004404WS02004405    1.00   0.00  0.00  0.00  1.00  0.00  0.00  0.00  0.00  0.00
  WS02004405WS02004406    1.00   0.00  0.00  0.00  1.00  0.00  0.00  0.00  0.00  0.00
  WS02004406WS02004407    1.00   0.00  0.05  0.00  0.95  0.00  0.00  0.00  0.00  0.00
  WS02004407WS02004409    1.00   0.05  0.00  0.00  0.94  0.01  0.00  0.00  0.94  0.00
  WS02004409WS02004410    1.00   0.05  0.00  0.00  0.95  0.00  0.00  0.00  0.02  0.00
  WS02004410WS02004411    1.00   0.05  0.00  0.00  0.95  0.00  0.00  0.00  0.00  0.00
  WS02004411WS02004412    1.00   0.05  0.00  0.00  0.95  0.00  0.00  0.00  0.00  0.00
  WS02004412WS02004413    1.00   0.05  0.00  0.00  0.94  0.00  0.00  0.00  0.01  0.00
  WS02004413WS02003067    1.00   0.06  0.04  0.00  0.00  0.00  0.90  0.00  0.00  0.00
  WS02006109WS02006110    1.00   0.00  0.01  0.00  0.98  0.00  0.01  0.00  0.00  0.00
  WS02006110WS02006113    1.00   0.01  0.01  0.00  0.98  0.00  0.00  0.00  0.00  0.00
  WS02006111WS02006112    1.00   0.02  0.00  0.00  0.98  0.00  0.00  0.00  0.98  0.00
  WS02006112WS02006115    1.00   0.02  0.00  0.00  0.97  0.00  0.00  0.00  0.00  0.00
  WS02006113WS02006111    1.00   0.02  0.00  0.00  0.00  0.98  0.00  0.00  0.10  0.00
  WS02006115WS02006116    1.00   0.02  0.00  0.00  0.97  0.00  0.00  0.01  0.00  0.00
  WS02006116WS02004401    1.00   0.02  0.00  0.00  0.98  0.00  0.00  0.00  0.00  0.00
  WS02006228WS02006109    1.00   0.00  0.00  0.00  1.00  0.00  0.00  0.00  0.00  0.00
  WS02006229WS02006228    1.00   0.00  0.00  0.00  0.99  0.00  0.00  0.01  0.00  0.00
  WS02006230WS02006229    1.00   0.00  0.00  0.00  0.99  0.00  0.00  0.01  0.00  0.00
  WS02006231WS02006230    1.00   0.00  0.00  0.00  0.21  0.00  0.78  0.00  0.00  0.00
  WS02006232WS02006231    1.00   0.00  0.00  0.00  0.99  0.00  0.01  0.00  0.00  0.00
  WS02006234WS02006232    1.00   0.00  0.00  0.00  1.00  0.00  0.00  0.00  0.50  0.00
  WS02006235WS02006234    1.00   0.00  0.00  0.00  0.46  0.00  0.54  0.00  0.00  0.00
  WS02006238WS02006235    1.00   0.00  0.00  0.00  1.00  0.00  0.00  0.00  0.00  0.00
  WS02006239WS02006238    1.00   0.00  0.00  0.00  1.00  0.00  0.00  0.00  0.59  0.00
  WS02006240WS02006239    1.00   0.00  0.00  0.00  0.37  0.00  0.00  0.63  0.01  0.00
  WS02006242WS02006240    1.00   0.00  0.00  0.00  0.99  0.00  0.01  0.00  0.00  0.00
  WS02006243WS02006242    1.00   0.00  0.00  0.00  0.99  0.00  0.00  0.01  0.68  0.00
  WS02006245WS02006243    1.00   0.00  0.00  0.00  0.42  0.00  0.00  0.58  0.00  0.00
  WS02006247WS02006245    1.00   0.00  0.00  0.00  0.99  0.00  0.00  0.01  0.00  0.00
  WS02006248WS02006247    1.00   0.00  0.00  0.00  0.99  0.00  0.00  0.01  0.13  0.00
  WS02006249WS02006248    1.00   0.00  0.00  0.00  0.32  0.00  0.68  0.00  0.00  0.00
  WS02006251WS02006249    1.00   0.00  0.00  0.00  1.00  0.00  0.00  0.00  0.69  0.00
  WS02006252WS02006251    1.00   0.00  0.72  0.00  0.00  0.00  0.28  0.00  0.00  0.00
  WS02006256WS02006235    1.00   0.00  0.00  0.00  1.00  0.00  0.00  0.00  0.00  0.00
  WSF200WS02003060        1.00   0.00  0.02  0.00  0.98  0.00  0.00  0.00  0.69  0.00
  YS02001580YS02001583    1.00   0.24  0.60  0.00  0.16  0.00  0.00  0.00  0.69  0.00
  YS02001583YS02001586    1.00   0.50  0.29  0.00  0.21  0.00  0.00  0.00  0.69  0.00
  YS02001586YS02001590    1.00   0.13  0.00  0.00  0.37  0.04  0.00  0.47  0.33  0.00
  YS02001590YS02001593    1.00   0.13  0.01  0.00  0.08  0.00  0.78  0.00  0.00  0.00
  YS02001593YS02001596    1.00   0.14  0.00  0.00  0.11  0.02  0.00  0.73  0.04  0.00
  YS02001596YS02001600    1.00   0.14  0.00  0.00  0.79  0.00  0.00  0.07  0.06  0.00
  YS02001600YS02001601    1.00   0.13  0.01  0.00  0.86  0.00  0.00  0.00  0.05  0.00
  YS02001601YS02001602    1.00   0.13  0.01  0.00  0.86  0.00  0.00  0.00  0.00  0.00
  YS02001602YS02001605    1.00   0.14  0.00  0.00  0.86  0.00  0.00  0.00  0.00  0.00
  YS02001605YS02001607    1.00   0.14  0.00  0.00  0.86  0.00  0.00  0.00  0.00  0.00
  YS02001607YS02001610    1.00   0.13  0.01  0.00  0.86  0.00  0.00  0.00  0.02  0.00
  YS02001610YS02001613    1.00   0.13  0.00  0.00  0.87  0.00  0.00  0.00  0.01  0.00
  YS02001613YS02001616    1.00   0.13  0.00  0.00  0.87  0.00  0.00  0.00  0.01  0.00
  YS02001616YS02001619    1.00   0.13  0.00  0.00  0.87  0.00  0.00  0.00  0.00  0.00
  YS02001619YS02001622    1.00   0.13  0.00  0.00  0.87  0.00  0.00  0.00  0.00  0.00
  YS02001622YS02001625    1.00   0.13  0.00  0.00  0.87  0.00  0.00  0.00  0.05  0.00
  YS02001625YS02001629    1.00   0.13  0.06  0.00  0.77  0.00  0.05  0.00  0.00  0.00
  YS02001629YS02163301    1.00   0.16  0.01  0.00  0.83  0.00  0.00  0.00  0.00  0.00
  YS02001633YS02163601    1.00   0.00  0.01  0.00  0.99  0.00  0.00  0.00  0.15  0.00
  YS02001641YS02001644    1.00   0.00  0.01  0.00  0.99  0.00  0.00  0.00  0.00  0.00
  YS02001644YS02001647    1.00   0.00  0.18  0.00  0.82  0.00  0.00  0.00  0.00  0.00
  YS02001647YS02001649    1.00   0.00  0.18  0.00  0.80  0.02  0.00  0.00  0.02  0.00
  YS02001649YS02001757    1.00   0.00  0.00  0.00  0.97  0.03  0.00  0.00  0.19  0.00
  YS02001652YS02001649    1.00   0.00  0.00  0.00  0.96  0.04  0.00  0.00  0.18  0.00
  YS02001655YS02001652    1.00   0.00  0.00  0.00  0.76  0.01  0.00  0.23  0.01  0.00
  YS02001658YS02001655    1.00   0.00  0.14  0.00  0.75  0.10  0.00  0.00  0.05  0.00
  YS02001661YS02001658    1.00   0.14  0.00  0.00  0.75  0.11  0.00  0.00  0.18  0.00
  YS02001664YS02001661    1.00   0.13  0.00  0.00  0.77  0.10  0.00  0.00  0.87  0.00
  YS02001745YS02001748    1.00   0.00  0.00  0.00  0.75  0.00  0.00  0.25  0.35  0.00
  YS02001748YS02001751    1.00   0.00  0.00  0.00  0.89  0.11  0.00  0.00  0.13  0.00
  YS02001751YS02001754    1.00   0.00  0.00  0.00  0.75  0.00  0.00  0.24  0.00  0.00
  YS02001754YS02001757    1.00   0.00  0.00  0.00  1.00  0.00  0.00  0.00  0.24  0.00
  YS02001757CaochengTiaoxuchi    1.00   0.00  0.00  0.00  0.98  0.02  0.00  0.00  0.22  0.00
  YS02001759YS02001757    1.00   0.00  0.00  0.00  1.00  0.00  0.00  0.00  0.06  0.00
  YS02001762YS02001759    1.00   0.00  0.00  0.00  1.00  0.00  0.00  0.00  0.05  0.00
  YS02001765YS02001762    1.00   0.00  0.00  0.00  1.00  0.00  0.00  0.00  0.17  0.00
  YS02001767YS02001765    1.00   0.00  0.00  0.00  1.00  0.00  0.00  0.00  0.00  0.00
  YS02001770YS02001767    1.00   0.00  0.00  0.00  1.00  0.00  0.00  0.00  0.00  0.00
  YS02001774YS02001770    1.00   0.00  0.13  0.00  0.86  0.00  0.00  0.00  0.04  0.00
  YS02001779YS02001774    1.00   0.00  0.00  0.00  1.00  0.00  0.00  0.00  0.19  0.00
  YS02001783YS02001784    1.00   0.00  0.19  0.00  0.81  0.00  0.00  0.00  0.00  0.00
  YS02001784YS02001785    1.00   0.00  0.00  0.00  1.00  0.00  0.00  0.00  0.18  0.00
  YS02001786YS02001788    1.00   0.00  0.00  0.00  0.95  0.05  0.00  0.00  0.00  0.00
  YS02001788YS02001790    1.00   0.00  0.00  0.00  0.95  0.05  0.00  0.00  0.20  0.00
  YS02001790YS02001791    1.00   0.00  0.00  0.00  0.77  0.23  0.00  0.00  0.03  0.00
  YS02001791YS02001793    1.00   0.00  0.00  0.00  0.75  0.24  0.00  0.00  0.00  0.00
  YS02001793JiankangQianchi    1.00   0.00  0.00  0.00  0.93  0.06  0.00  0.00  0.22  0.00
  YS02001882YS02001884    1.00   0.16  0.01  0.00  0.83  0.00  0.00  0.00  0.00  0.00
  YS02001884YS02001887    1.00   0.06  0.05  0.00  0.89  0.00  0.00  0.00  0.00  0.00
  YS02001887YS02001890    1.00   0.00  0.00  0.00  0.97  0.00  0.03  0.00  0.00  0.00
  YS02001890YS02001895    1.00   0.00  0.17  0.00  0.83  0.00  0.00  0.00  0.00  0.00
  YS02001895YS02001898    1.00   0.17  0.00  0.00  0.81  0.00  0.02  0.00  0.00  0.00
  YS02001898YS02001901    1.00   0.17  0.00  0.00  0.82  0.00  0.00  0.00  0.01  0.00
  YS02001901YS02001904    1.00   0.17  0.00  0.00  0.83  0.00  0.00  0.00  0.00  0.00
  YS02001904YS02001907    1.00   0.00  0.17  0.00  0.83  0.00  0.00  0.00  0.00  0.00
  YS02001907YS02006553    1.00   0.00  0.02  0.00  0.98  0.00  0.00  0.00  0.00  0.00
  YS02001910YS02001907    1.00   0.00  0.00  0.00  0.97  0.00  0.00  0.03  0.12  0.00
  YS02001915YS02001910    1.00   0.00  0.00  0.00  0.96  0.04  0.00  0.00  0.17  0.00
  YS02001918YS02001915    1.00   0.00  0.01  0.00  0.98  0.02  0.00  0.00  0.79  0.00
  YS02001920YS02001918    1.00   0.00  0.01  0.00  0.99  0.00  0.00  0.00  0.00  0.00
  YS02001923YS02001920    1.00   0.00  0.00  0.00  1.00  0.00  0.00  0.00  0.95  0.00
  YS02001926YS02001923    1.00   0.00  0.07  0.00  0.04  0.00  0.89  0.00  0.00  0.00
  YS02001929YS02001926    1.00   0.00  0.13  0.00  0.87  0.00  0.00  0.00  0.84  0.00
  YS02006553YS02006556    1.00   0.01  0.00  0.00  0.99  0.00  0.00  0.00  0.03  0.00
  YS02006556YS02006558    1.00   0.00  0.00  0.00  1.00  0.00  0.00  0.00  0.00  0.00
  YS02006558YS02006561    1.00   0.19  0.00  0.00  0.05  0.76  0.00  0.00  0.18  0.00
  YS02006561YS02001783    1.00   0.19  0.00  0.00  0.76  0.05  0.00  0.00  0.73  0.00
  YS02163301YS02001633    1.00   0.00  0.16  0.00  0.84  0.00  0.00  0.00  0.00  0.00
  YS02163601YS02164001    1.00   0.00  0.08  0.00  0.92  0.00  0.00  0.00  0.00  0.00
  YS02164001YS02001641    1.00   0.01  0.07  0.00  0.92  0.00  0.00  0.00  0.06  0.00
  
  
  *************************
  Conduit Surcharge Summary
  *************************
  
  ----------------------------------------------------------------------------
                                                           Hours        Hours 
                         --------- Hours Full --------   Above Full   Capacity
  Conduit                Both Ends  Upstream  Dnstream   Normal Flow   Limited
  ----------------------------------------------------------------------------
  WS02003072WS02003073        0.01      0.01      0.01      2.18         0.01
  WS02004404WS02004405        0.01      0.01      0.01      2.14         0.01
  WS02006109WS02006110        0.01      0.01      1.66      0.01         0.01
  WS02006110WS02006113        0.01      0.01      1.63      0.01         0.01
  WS02006111WS02006112        0.01      0.01      1.71      0.01         0.01
  WS02006228WS02006109        1.60      1.66      1.60      1.96         1.60
  WS02006229WS02006228        1.59      1.61      1.59      1.75         1.59
  WS02006230WS02006229        1.71      1.73      1.71      2.60         1.71
  WS02006231WS02006230        0.01      0.01      0.01      2.41         0.01
  WS02006232WS02006231        0.01      0.01      1.66      0.01         0.01
  WS02006234WS02006232        1.56      1.56      1.66      0.01         0.01
  WS02006235WS02006234        0.01      0.01      1.61      2.33         0.01
  WS02006238WS02006235        1.62      1.62      1.67      0.01         0.01
  WS02006239WS02006238        1.63      1.66      1.63      1.82         1.63
  WS02006240WS02006239        1.61      1.63      1.61      1.84         1.61
  WS02006242WS02006240        1.62      1.62      1.72      1.94         0.01
  WS02006243WS02006242        1.64      1.64      1.70      0.01         0.01
  WS02006245WS02006243        1.63      1.64      1.63      1.91         1.63
  WS02006247WS02006245        1.63      1.66      1.63      2.23         1.63
  WS02006248WS02006247        1.64      1.64      1.65      0.01         0.01
  WS02006249WS02006248        1.63      1.63      1.65      2.21         0.01
  WS02006251WS02006249        1.64      1.65      1.65      1.98         1.64
  WS02006252WS02006251        2.01      2.01      2.01      2.01         0.01
  WS02006256WS02006235        2.36      2.37      3.23      0.02         0.01
  YS02001580YS02001583        0.31      0.31      0.35      0.01         0.01
  YS02001583YS02001586        0.32      0.32      0.45      0.01         0.01
  YS02001586YS02001590        0.46      0.46      0.52      0.01         0.01
  YS02001590YS02001593        0.53      0.53      0.54      0.54         0.01
  YS02001593YS02001596        0.53      0.53      0.63      0.01         0.01
  YS02001596YS02001600        0.68      0.68      0.83      0.01         0.01
  YS02001600YS02001601        0.95      0.95      6.09      0.01         0.01
  YS02001601YS02001602        5.65      5.65      6.22      0.72         0.01
  YS02001602YS02001605        5.59      5.59      5.65      1.88         0.01
  YS02001605YS02001607        5.56      5.59      6.06      0.98         0.89
  YS02001607YS02001610        0.55      0.55      0.59      0.01         0.01
  YS02001610YS02001613        0.55      0.55      0.59      0.01         0.01
  YS02001613YS02001616        0.50      0.50      0.55      0.01         0.01
  YS02001616YS02001619        0.48      0.48      0.50      0.01         0.01
  YS02001619YS02001622        0.47      0.48      0.48      0.48         0.42
  YS02001622YS02001625        0.48      0.48      0.99      0.01         0.01
  YS02001625YS02001629        0.42      0.42      0.99      0.01         0.01
  YS02001629YS02163301        1.16      1.16      4.83      0.08         0.12
  YS02001633YS02163601        5.82      5.82      6.06      0.34         0.33
  YS02001641YS02001644        6.03      6.04      6.03      1.08         0.89
  YS02001644YS02001647        0.48      0.48      6.03      0.04         0.01
  YS02001647YS02001649        0.48      0.48      5.99      0.01         0.01
  YS02001649YS02001757        5.99      5.99      5.99      0.22         0.17
  YS02001652YS02001649        0.37      0.37      5.99      0.01         0.01
  YS02001655YS02001652        0.09      0.09      0.29      0.01         0.01
  YS02001658YS02001655        0.01      0.01      0.09      0.01         0.01
  YS02001661YS02001658        0.01      0.01      0.01      0.01         0.01
  YS02001748YS02001751        0.01      0.01      0.01      0.01         0.01
  YS02001751YS02001754        0.01      0.01      0.12      0.01         0.01
  YS02001754YS02001757        0.19      0.19      5.99      0.01         0.01
  YS02001757CaochengTiaoxuchi        5.93      5.99      5.93      0.21         0.12
  YS02001759YS02001757        5.98      5.98      5.99      0.01         0.01
  YS02001762YS02001759        5.98      5.98      5.98      0.01         0.02
  YS02001765YS02001762        5.98      5.98      5.98      0.01         0.01
  YS02001767YS02001765        5.55      5.55      5.98      0.01         0.02
  YS02001770YS02001767        5.46      5.46      5.55      0.30         0.18
  YS02001774YS02001770        4.17      4.17      5.98      0.01         0.01
  YS02001779YS02001774        0.13      0.13      5.98      0.01         0.01
  YS02001783YS02001784        0.44      0.44      0.45      0.42         0.36
  YS02001784YS02001785        0.44      0.45      0.44      0.60         0.44
  YS02001786YS02001788        0.44      0.44      0.44      0.52         0.44
  YS02001788YS02001790        0.44      0.44      6.01      0.01         0.01
  YS02001790YS02001791        6.01      6.01      6.01      0.21         0.21
  YS02001791YS02001793        6.01      6.01      6.03      0.01         0.01
  YS02001793JiankangQianchi        6.02      6.02      6.22      0.01         0.01
  YS02001882YS02001884        0.31      0.31      0.32      0.01         0.01
  YS02001884YS02001887        0.34      0.34      0.35      0.01         0.01
  YS02001887YS02001890        0.36      0.36      0.37      0.01         0.01
  YS02001890YS02001895        0.30      0.30      0.38      0.01         0.01
  YS02001895YS02001898        0.29      0.29      0.30      0.01         0.01
  YS02001898YS02001901        0.30      0.30      0.34      0.01         0.01
  YS02001901YS02001904        0.33      0.33      0.34      0.01         0.01
  YS02001904YS02001907        0.33      0.33      0.52      0.01         0.01
  YS02001907YS02006553        0.61      0.61      0.66      0.01         0.01
  YS02001910YS02001907        0.38      0.38      0.51      0.01         0.01
  YS02001915YS02001910        0.31      0.31      0.38      0.01         0.01
  YS02001918YS02001915        0.23      0.23      0.31      0.01         0.01
  YS02001920YS02001918        0.23      0.23      0.24      0.01         0.01
  YS02001923YS02001920        0.17      0.17      0.24      0.01         0.01
  YS02001926YS02001923        0.01      0.01      0.01      0.01         0.01
  YS02001929YS02001926        0.01      0.01      0.01      0.01         0.01
  YS02006553YS02006556        0.44      0.44      0.52      0.01         0.01
  YS02006556YS02006558        0.48      0.48      0.53      0.01         0.01
  YS02006558YS02006561        0.33      0.44      0.33      0.58         0.33
  YS02006561YS02001783        0.27      0.27      0.44      0.01         0.01
  YS02163301YS02001633        4.83      4.83      5.96      0.01         0.01
  YS02163601YS02164001        5.91      5.91      6.06      0.06         0.01
  YS02164001YS02001641        5.91      5.91      6.04      0.56         0.53
  
  
  ***************
  Pumping Summary
  ***************
  
  ---------------------------------------------------------------------------------------------------------
                                                  Min       Avg       Max     Total     Power    % Time Off
                        Percent   Number of      Flow      Flow      Flow    Volume     Usage    Pump Curve
  Pump                 Utilized   Start-Ups       LPS       LPS       LPS  10^6 ltr     Kw-hr    Low   High
  ---------------------------------------------------------------------------------------------------------
  CC-R1                    1.06           1      0.00    683.00    683.00     0.208      3.51    0.0  100.0
  CC-R2                    1.06           1      0.00    683.00    683.00     0.208      3.51    0.0  100.0
  CC-S1                   28.24           4      0.00    200.00    200.00     1.626      7.88    0.0   28.8
  CC-S2                   25.11           3      0.00    200.00    200.00     1.446      7.34    0.0   28.2
  JK-R1                    0.97           2      0.00    347.46   1000.00     0.078      0.47    0.0    0.0
  JK-R2                    0.97           2      0.00    347.46   1000.00     0.078      0.47    0.0    0.0
  JK-S                     0.97           2      0.00    104.30    300.00     0.023      0.44    0.0    0.0
  XR-1                   100.00           1      0.00     95.00     95.00     2.736     68.18    0.0    0.0
  XR-2                   100.00           1      0.00     95.00     95.00     2.736     68.18    0.0    0.0
  XR-3                   100.00           1      0.00     95.00     95.00     2.736     68.18    0.0    0.0
  XR-4                   100.00           1      0.00     95.00     95.00     2.736     68.18    0.0    0.0
  

  Analysis begun on:  Wed Nov  5 16:30:03 2025
  Analysis ended on:  Wed Nov  5 16:30:05 2025
  Total elapsed time: 00:00:02