
  EPA STORM WATER MANAGEMENT MODEL - VERSION 5.2 (Build 5.2.4)
  PYSWMM TOOLKIT API - VERSION v1.0 (2023-11-27)
  ------------------------------------------------------------

  WARNING 04: minimum elevation drop used for Conduit WS02004404WS02004405
  WARNING 03: negative offset ignored for Link YS02001904YS02001907
  
  ****************
  Analysis Options
  ****************
  Flow Units ............... LPS
  Process Models:
    Rainfall/Runoff ........ YES
    RDII ................... NO
    Snowmelt ............... NO
    Groundwater ............ NO
    Flow Routing ........... YES
    Ponding Allowed ........ NO
    Water Quality .......... NO
  Infiltration Method ...... HORTON
  Flow Routing Method ...... DYNWAVE
  Surcharge Method ......... EXTRAN
  Starting Date ............ 08/28/2015 08:00:00
  Ending Date .............. 08/28/2015 16:00:00
  Antecedent Dry Days ...... 8.0
  Report Time Step ......... 00:01:00
  Wet Time Step ............ 00:01:00
  Dry Time Step ............ 00:01:00
  Routing Time Step ........ 30.00 sec
  Variable Time Step ....... YES
  Maximum Trials ........... 8
  Number of Threads ........ 4
  Head Tolerance ........... 0.001500 m
  
  
  **************************        Volume         Depth
  Runoff Quantity Continuity     hectare-m            mm
  **************************     ---------       -------
  Initial LID Storage ......         0.049         1.488
  Total Precipitation ......         1.963        59.189
  Evaporation Loss .........         0.000         0.000
  Infiltration Loss ........         0.076         2.277
  Surface Runoff ...........         1.449        43.670
  Final Storage ............         0.489        14.748
  Continuity Error (%) .....        -0.030
  
  
  **************************        Volume        Volume
  Flow Routing Continuity        hectare-m      10^6 ltr
  **************************     ---------     ---------
  Dry Weather Inflow .......         0.602         6.020
  Wet Weather Inflow .......         1.449        14.487
  Groundwater Inflow .......         0.000         0.000
  RDII Inflow ..............         0.000         0.000
  External Inflow ..........         0.105         1.045
  External Outflow .........         1.544        15.439
  Flooding Loss ............         0.575         5.747
  Evaporation Loss .........         0.000         0.000
  Exfiltration Loss ........         0.000         0.000
  Initial Stored Volume ....         0.303         3.031
  Final Stored Volume ......         0.798         7.981
  Continuity Error (%) .....       -18.645
  
  
  *************************
  Highest Continuity Errors
  *************************
  Node YS02001774 (35.47%)
  Node YS02001583 (-11.58%)
  Node WS02006256 (-6.39%)
  Node YS02001884 (4.70%)
  Node YS02001754 (3.72%)
  
  
  ***************************
  Time-Step Critical Elements
  ***************************
  Link WS02001212WS02001213 (26.52%)
  Link WS02006238WS02006235 (23.10%)
  Link WS02006235WS02006234 (20.13%)
  Link WS02003066WSF200 (8.14%)
  Link WS02006252WS02006251 (3.93%)
  
  
  ********************************
  Highest Flow Instability Indexes
  ********************************
  Link WS02006113WS02006111 (43)
  Link WS02006256WS02006235 (32)
  Link WS02006252WS02006251 (32)
  Link WS02006238WS02006235 (32)
  Link WS02006111WS02006112 (30)
  
  
  *********************************
  Most Frequent Nonconverging Nodes
  *********************************
  Node CC-1 (16.42%)
  Node CC-2 (16.42%)
  Node JK-1 (16.42%)
  Node JK-2 (16.42%)
  Node WSC (16.42%)
  
  
  *************************
  Routing Time Step Summary
  *************************
  Minimum Time Step           :     0.01 sec
  Average Time Step           :     3.56 sec
  Maximum Time Step           :     6.46 sec
  % of Time in Steady State   :     0.00
  Average Iterations per Step :     3.55
  % of Steps Not Converging   :    16.42
  Time Step Frequencies       :
     30.000 - 13.228 sec      :     0.00 %
     13.228 -  5.833 sec      :    27.29 %
      5.833 -  2.572 sec      :    41.47 %
      2.572 -  1.134 sec      :    25.52 %
      1.134 -  0.500 sec      :     5.72 %
  
  
  ***************************
  Subcatchment Runoff Summary
  ***************************
  
  ------------------------------------------------------------------------------------------------------------------------------
                            Total      Total      Total      Total     Imperv       Perv      Total       Total     Peak  Runoff
                           Precip      Runon       Evap      Infil     Runoff     Runoff     Runoff      Runoff   Runoff   Coeff
  Subcatchment                 mm         mm         mm         mm         mm         mm         mm    10^6 ltr      LPS
  ------------------------------------------------------------------------------------------------------------------------------
  sub60                     59.19       0.00       0.00       1.37      39.27       4.11      43.38        0.57   373.05   0.733
  sub61                     59.19       0.00       0.00       2.10      39.24       6.13      45.37        0.83   541.30   0.766
  sub62                     59.19       0.00       0.00       0.93      41.83       2.79      44.62        1.22   738.69   0.754
  sub63                     59.19       0.00       0.00       3.82      33.61      10.23      43.84        1.00   598.72   0.741
  sub64                     59.19       0.00       0.00       1.84      38.27       5.08      43.34        1.04   598.18   0.732
  sub65                     59.19       0.00       0.00       1.69      41.30       4.64      45.94        1.26   696.21   0.776
  sub66                     59.19       0.00       0.00       4.43      32.49       9.19      41.68        1.94   882.48   0.704
  sub67                     59.19       0.00       0.00       0.93      42.89       2.89      45.78        0.85   579.95   0.773
  sub68                     59.19       0.00       0.00       1.61      37.87       4.70      42.58        1.17   736.62   0.719
  sub69                     59.19       0.00       0.00       1.46      39.79       5.58      45.37        1.68   905.34   0.766
  sub70                     59.19       0.00       0.00       4.85      31.88      11.63      43.50        1.26   511.99   0.735
  sub71                     59.19       0.00       0.00       0.86      38.00       2.53      40.52        1.06   608.46   0.685
  sub72                     59.19       0.00       0.00       0.82      41.04       2.35      43.39        0.60   310.94   0.733
  

  ***********************
  LID Performance Summary
  ***********************

  --------------------------------------------------------------------------------------------------------------------
                                         Total      Evap     Infil   Surface    Drain    Initial     Final  Continuity
                                        Inflow      Loss      Loss   Outflow   Outflow   Storage   Storage       Error
  Subcatchment      LID Control             mm        mm        mm        mm        mm        mm        mm           %
  --------------------------------------------------------------------------------------------------------------------
  sub60             GreenRoof            59.19      0.00      0.00      0.00      0.00      7.05     66.27       -0.05
  sub61             GreenRoof            59.19      0.00      0.00      0.00      0.00      7.05     66.27       -0.05
  sub62             GreenRoof            59.19      0.00      0.00      0.00      0.00      7.05     66.27       -0.05
  sub63             GreenRoof            59.19      0.00      0.00      0.00      0.00      7.05     66.27       -0.05
  sub64             GreenRoof            59.19      0.00      0.00      0.00      0.00      7.05     66.27       -0.05
  sub65             GreenRoof            59.19      0.00      0.00      0.00      0.00      7.05     66.27       -0.05
  sub66             GreenRoof            59.19      0.00      0.00      0.00      0.00      7.05     66.27       -0.05
  sub67             GreenRoof            59.19      0.00      0.00      0.00      0.00      7.05     66.27       -0.05
  sub68             GreenRoof            59.19      0.00      0.00      0.00      0.00      7.05     66.27       -0.05
  sub69             GreenRoof            59.19      0.00      0.00      0.00      0.00      7.05     66.27       -0.05
  sub70             GreenRoof            59.19      0.00      0.00      0.00      0.00      7.05     66.27       -0.05
  sub71             GreenRoof            59.19      0.00      0.00      0.00      0.00      7.05     66.27       -0.05
  sub72             GreenRoof            59.19      0.00      0.00      0.00      0.00      7.05     66.27       -0.05
  
  ******************
  Node Depth Summary
  ******************
  
  ---------------------------------------------------------------------------------
                                 Average  Maximum  Maximum  Time of Max    Reported
                                   Depth    Depth      HGL   Occurrence   Max Depth
  Node                 Type       Meters   Meters   Meters  days hr:min      Meters
  ---------------------------------------------------------------------------------
  WS02001211           JUNCTION     0.76     0.78     5.62     0  03:08        0.78
  WS02001212           JUNCTION     0.46     0.49     5.55     0  02:55        0.49
  WS02001213           JUNCTION     0.68     0.73     5.49     0  02:55        0.73
  WS02003059           JUNCTION     0.73     0.78     5.47     0  02:54        0.78
  WS02003060           JUNCTION     0.38     0.47     5.41     0  02:53        0.47
  WS02003066           JUNCTION     0.16     0.27     5.82     0  02:53        0.27
  WS02003067           JUNCTION     0.44     0.65     5.97     0  02:53        0.65
  WS02003069           JUNCTION     0.43     0.54     5.12     0  02:54        0.54
  WS02003072           JUNCTION     0.49     0.60     4.97     0  02:55        0.60
  WS02003073           JUNCTION     0.29     0.37     4.43     0  03:12        0.37
  WS02004138           JUNCTION     0.19     0.20     7.45     0  00:00        0.19
  WS02004139           JUNCTION     0.71     0.73     5.64     0  02:56        0.73
  WS02004401           JUNCTION     0.52     0.75     6.75     0  03:22        0.75
  WS02004402           JUNCTION     0.55     0.78     6.74     0  03:23        0.78
  WS02004403           JUNCTION     0.58     0.80     6.73     0  03:23        0.80
  WS02004404           JUNCTION     0.65     0.88     6.73     0  02:54        0.88
  WS02004405           JUNCTION     0.65     0.88     6.73     0  02:54        0.87
  WS02004406           JUNCTION     0.66     0.88     6.71     0  03:23        0.88
  WS02004407           JUNCTION     0.14     0.26     6.57     0  03:24        0.26
  WS02004409           JUNCTION     0.32     0.57     6.34     0  02:51        0.57
  WS02004410           JUNCTION     0.34     0.59     6.31     0  02:51        0.59
  WS02004411           JUNCTION     0.37     0.61     6.29     0  02:52        0.61
  WS02004412           JUNCTION     0.39     0.62     6.26     0  02:52        0.62
  WS02004413           JUNCTION     0.55     0.79     6.26     0  02:52        0.79
  WS02006109           JUNCTION     0.58     0.83     7.45     0  02:23        0.83
  WS02006110           JUNCTION     0.58     0.82     7.41     0  02:23        0.82
  WS02006111           JUNCTION     0.15     0.25     6.96     0  02:53        0.25
  WS02006112           JUNCTION     0.67     0.93     6.82     0  02:53        0.93
  WS02006113           JUNCTION     0.22     0.39     7.29     0  03:21        0.39
  WS02006115           JUNCTION     0.41     0.65     6.78     0  02:53        0.64
  WS02006116           JUNCTION     0.49     0.73     6.77     0  02:53        0.73
  WS02006228           JUNCTION     0.56     0.84     7.49     0  01:42        0.84
  WS02006229           JUNCTION     0.53     0.82     7.52     0  02:28        0.82
  WS02006230           JUNCTION     0.52     0.86     7.60     0  02:25        0.86
  WS02006231           JUNCTION     0.32     0.60     7.72     0  02:24        0.60
  WS02006232           JUNCTION     0.44     0.75     7.79     0  02:24        0.75
  WS02006234           JUNCTION     0.36     0.71     7.87     0  02:11        0.71
  WS02006235           JUNCTION     0.39     0.77     7.93     0  02:09        0.76
  WS02006238           JUNCTION     0.42     0.81     7.95     0  01:49        0.80
  WS02006239           JUNCTION     0.40     0.81     8.02     0  02:12        0.80
  WS02006240           JUNCTION     0.38     0.79     8.08     0  02:09        0.79
  WS02006242           JUNCTION     0.45     0.90     8.17     0  02:11        0.90
  WS02006243           JUNCTION     0.38     0.84     8.26     0  02:39        0.84
  WS02006245           JUNCTION     0.39     0.86     8.34     0  02:06        0.85
  WS02006247           JUNCTION     0.41     0.89     8.39     0  02:30        0.89
  WS02006248           JUNCTION     0.38     0.86     8.45     0  02:17        0.85
  WS02006249           JUNCTION     0.40     1.01     8.61     0  02:19        1.01
  WS02006251           JUNCTION     0.40     0.91     8.58     0  02:31        0.91
  WS02006252           JUNCTION     0.29     1.50     9.74     0  00:00        0.61
  WS02006256           JUNCTION     0.63     2.35     9.28     0  00:00        2.35
  WSF200               JUNCTION     0.13     0.25     5.48     0  02:53        0.25
  YS02001580           JUNCTION     0.09     1.05     9.59     0  01:46        0.79
  YS02001583           JUNCTION     0.12     1.14     9.64     0  01:46        0.83
  YS02001586           JUNCTION     0.20     1.13     9.30     0  01:46        1.13
  YS02001590           JUNCTION     0.31     1.40     9.26     0  01:44        1.37
  YS02001593           JUNCTION     0.25     1.46     9.32     0  01:44        1.29
  YS02001596           JUNCTION     0.50     1.70     9.12     0  01:46        1.66
  YS02001600           JUNCTION     0.73     1.87     9.00     0  01:45        1.87
  YS02001601           JUNCTION     0.98     2.06     8.90     0  01:45        2.06
  YS02001602           JUNCTION     0.89     1.87     8.77     0  01:46        1.87
  YS02001605           JUNCTION     0.86     1.78     8.68     0  01:46        1.78
  YS02001607           JUNCTION     0.86     1.68     8.53     0  02:19        1.68
  YS02001610           JUNCTION     0.90     1.68     8.48     0  01:46        1.68
  YS02001613           JUNCTION     0.86     1.70     8.54     0  02:19        1.70
  YS02001616           JUNCTION     0.80     1.61     8.52     0  02:19        1.61
  YS02001619           JUNCTION     0.78     1.61     8.54     0  01:49        1.61
  YS02001622           JUNCTION     0.79     1.62     8.52     0  02:19        1.62
  YS02001625           JUNCTION     1.04     1.78     8.38     0  01:46        1.78
  YS02001629           JUNCTION     1.07     1.85     8.40     0  01:46        1.85
  YS02001633           JUNCTION     1.15     2.07     8.52     0  01:48        1.97
  YS02001641           JUNCTION     1.13     1.98     8.42     0  01:48        1.93
  YS02001644           JUNCTION     1.13     1.92     8.35     0  01:49        1.92
  YS02001647           JUNCTION     0.95     1.75     8.36     0  01:50        1.71
  YS02001649           JUNCTION     1.11     1.91     8.30     0  01:50        1.84
  YS02001652           JUNCTION     0.93     1.80     8.40     0  01:50        1.68
  YS02001655           JUNCTION     0.73     1.75     8.60     0  01:50        1.45
  YS02001658           JUNCTION     0.51     1.69     8.84     0  01:50        1.17
  YS02001661           JUNCTION     0.31     1.03     8.44     0  01:51        0.93
  YS02001664           JUNCTION     0.06     0.49     8.41     0  01:51        0.49
  YS02001745           JUNCTION     0.20     0.75     8.27     0  01:50        0.61
  YS02001748           JUNCTION     0.54     1.54     8.61     0  01:50        1.06
  YS02001751           JUNCTION     0.69     1.72     8.60     0  01:49        1.24
  YS02001754           JUNCTION     0.90     1.74     8.35     0  01:49        1.49
  YS02001757           JUNCTION     1.20     1.88     8.14     0  01:50        1.83
  YS02001759           JUNCTION     1.11     1.86     8.22     0  01:50        1.81
  YS02001762           JUNCTION     1.08     1.85     8.25     0  01:50        1.80
  YS02001765           JUNCTION     1.04     1.83     8.28     0  01:50        1.78
  YS02001767           JUNCTION     1.01     1.85     8.34     0  01:49        1.85
  YS02001770           JUNCTION     1.02     1.95     8.44     0  01:49        1.95
  YS02001774           JUNCTION     1.08     2.05     8.47     0  01:49        2.05
  YS02001779           JUNCTION     0.85     1.68     8.37     0  01:49        1.68
  YS02001783           JUNCTION     0.49     2.04     8.19     0  01:49        2.04
  YS02001784           JUNCTION     0.54     1.97     8.04     0  01:49        1.97
  YS02001786           JUNCTION     0.54     1.83     7.86     0  01:48        1.75
  YS02001788           JUNCTION     0.56     2.10     8.08     0  01:48        1.52
  YS02001790           JUNCTION     0.80     1.89     7.53     0  01:48        1.58
  YS02001791           JUNCTION     0.90     1.60     7.07     0  01:48        1.43
  YS02001793           JUNCTION     1.38     1.89     6.72     0  01:48        1.87
  YS02001882           JUNCTION     0.30     1.80     8.51     0  01:47        1.64
  YS02001884           JUNCTION     0.39     1.87     8.48     0  01:47        1.74
  YS02001887           JUNCTION     0.47     1.89     8.42     0  01:47        1.83
  YS02001890           JUNCTION     0.50     1.81     8.32     0  01:47        1.81
  YS02001895           JUNCTION     0.27     1.57     8.32     0  01:52        1.57
  YS02001898           JUNCTION     0.28     1.57     8.31     0  01:48        1.56
  YS02001901           JUNCTION     0.39     1.68     8.29     0  01:48        1.67
  YS02001904           JUNCTION     0.37     1.65     8.28     0  01:49        1.65
  YS02001907           JUNCTION     0.68     1.96     8.25     0  01:48        1.96
  YS02001910           JUNCTION     0.49     2.02     8.53     0  01:49        1.82
  YS02001915           JUNCTION     0.30     1.98     8.70     0  01:49        1.67
  YS02001918           JUNCTION     0.16     1.81     8.88     0  01:49        1.36
  YS02001920           JUNCTION     0.24     2.11     9.12     0  01:49        1.44
  YS02001923           JUNCTION     0.12     2.03     9.29     0  01:49        1.21
  YS02001926           JUNCTION     0.15     1.90     9.35     0  01:49        1.03
  YS02001929           JUNCTION     0.08     1.78     9.47     0  01:49        0.79
  YS02006553           JUNCTION     0.69     2.14     8.42     0  01:49        2.14
  YS02006556           JUNCTION     0.66     2.32     8.63     0  01:49        2.32
  YS02006558           JUNCTION     0.70     2.44     8.71     0  01:49        2.44
  YS02006561           JUNCTION     0.17     1.63     8.29     0  01:49        1.63
  YS02163301           JUNCTION     1.09     2.02     8.54     0  02:19        2.02
  YS02163601           JUNCTION     1.19     2.08     8.48     0  01:48        1.99
  YS02164001           JUNCTION     1.12     2.01     8.47     0  01:48        1.91
  CC-1                 OUTFALL      0.00     0.00     0.00     0  00:00        0.00
  CC-2                 OUTFALL      0.00     0.00     0.00     0  00:00        0.00
  JK-1                 OUTFALL      0.00     0.00     0.00     0  00:00        0.00
  JK-2                 OUTFALL      0.00     0.00     0.00     0  00:00        0.00
  WSC                  OUTFALL      0.29     0.37     1.04     0  03:12        0.37
  CC-storage           STORAGE      1.79     2.30     7.80     0  02:33        2.30
  JK-storage           STORAGE      4.62     5.80     6.60     0  01:48        5.80
  XR-storage           STORAGE      0.29     5.00     3.00     0  00:00        4.91
  
  
  *******************
  Node Inflow Summary
  *******************
  
  -------------------------------------------------------------------------------------------------
                                  Maximum  Maximum                  Lateral       Total        Flow
                                  Lateral    Total  Time of Max      Inflow      Inflow     Balance
                                   Inflow   Inflow   Occurrence      Volume      Volume       Error
  Node                 Type           LPS      LPS  days hr:min    10^6 ltr    10^6 ltr     Percent
  -------------------------------------------------------------------------------------------------
  WS02001211           JUNCTION      7.35   389.12     0  03:36       0.212        11.1       0.348
  WS02001212           JUNCTION      0.00   390.85     0  03:36           0        11.1       0.207
  WS02001213           JUNCTION      0.00   392.60     0  03:35           0        11.1       0.238
  WS02003059           JUNCTION      0.00   395.64     0  03:35           0          11       0.328
  WS02003060           JUNCTION     16.53   816.06     0  02:53       0.476        14.9       0.144
  WS02003066           JUNCTION      0.00   411.87     0  02:53           0        3.44       0.035
  WS02003067           JUNCTION      0.00   411.87     0  02:52           0        3.45       0.116
  WS02003069           JUNCTION      0.32   816.35     0  02:54     0.00922        14.9       0.153
  WS02003072           JUNCTION      0.00   816.34     0  02:54           0        14.9       0.199
  WS02003073           JUNCTION      1.82   818.15     0  03:11      0.0524        14.9       0.214
  WS02004138           JUNCTION      0.00   380.00     0  00:00           0        10.9       0.059
  WS02004139           JUNCTION      0.32   395.52     0  00:00     0.00924        10.9       0.407
  WS02004401           JUNCTION      0.00   412.28     0  03:22           0        3.54       0.280
  WS02004402           JUNCTION      0.00   412.22     0  03:23           0        3.53       0.285
  WS02004403           JUNCTION      0.00   412.17     0  03:23           0        3.52       0.279
  WS02004404           JUNCTION      0.16   412.29     0  03:23     0.00467        3.52       0.248
  WS02004405           JUNCTION      0.04   412.36     0  03:23      0.0011        3.51       0.333
  WS02004406           JUNCTION      0.00   412.39     0  03:23           0         3.5       0.583
  WS02004407           JUNCTION      0.00   412.11     0  03:23           0        3.48       0.026
  WS02004409           JUNCTION      0.00   411.99     0  03:24           0        3.48       0.064
  WS02004410           JUNCTION      0.00   411.96     0  02:51           0        3.48       0.112
  WS02004411           JUNCTION      0.00   411.93     0  02:51           0        3.47       0.147
  WS02004412           JUNCTION      0.00   411.92     0  02:52           0        3.47       0.201
  WS02004413           JUNCTION      0.00   411.93     0  02:52           0        3.46       0.362
  WS02006109           JUNCTION      1.23   411.73     0  02:25      0.0354        3.58       0.086
  WS02006110           JUNCTION      0.00   411.73     0  02:25           0        3.58       0.172
  WS02006111           JUNCTION      0.00   423.84     0  03:21           0        3.57       0.024
  WS02006112           JUNCTION      0.00   413.72     0  02:53           0        3.57       0.488
  WS02006113           JUNCTION      0.00   412.00     0  02:19           0        3.57       0.038
  WS02006115           JUNCTION      0.00   412.57     0  03:22           0        3.55       0.175
  WS02006116           JUNCTION      0.00   412.32     0  02:53           0        3.55       0.127
  WS02006228           JUNCTION      0.00   410.50     0  02:25           0        3.55       0.022
  WS02006229           JUNCTION      0.00   410.49     0  02:25           0        3.55       0.150
  WS02006230           JUNCTION     10.28   410.67     0  02:28       0.296        3.56       0.170
  WS02006231           JUNCTION      0.00   400.45     0  02:27           0        3.26      -0.143
  WS02006232           JUNCTION      0.00   400.45     0  02:27           0        3.27       0.307
  WS02006234           JUNCTION      0.00   401.59     0  01:49           0        3.26      -0.219
  WS02006235           JUNCTION      0.00   402.69     0  02:21           0        3.28       0.286
  WS02006238           JUNCTION      0.00   402.16     0  02:03           0        3.25      -0.414
  WS02006239           JUNCTION      0.00   401.29     0  02:09           0        3.23      -0.328
  WS02006240           JUNCTION      0.00   401.10     0  02:32           0        3.23      -0.062
  WS02006242           JUNCTION      0.00   401.10     0  02:22           0        3.23       0.034
  WS02006243           JUNCTION      0.00   401.24     0  02:39           0        3.22      -0.068
  WS02006245           JUNCTION      0.00   403.54     0  02:49           0        3.24       0.513
  WS02006247           JUNCTION      0.00   400.95     0  01:51           0        3.24       0.009
  WS02006248           JUNCTION      0.00   401.25     0  02:10           0        3.24       0.066
  WS02006249           JUNCTION      0.00   472.40     0  04:01           0        3.26       0.468
  WS02006251           JUNCTION      0.08   404.66     0  03:51     0.00222        3.26      -0.029
  WS02006252           JUNCTION      0.00   400.00     0  00:00           0        3.26      -0.051
  WS02006256           JUNCTION      0.00   300.00     0  00:00           0      0.0242      -6.008
  WSF200               JUNCTION      0.00   411.87     0  02:53           0        3.44       0.016
  YS02001580           JUNCTION      0.00   138.61     0  01:46           0     0.00452       3.890
  YS02001583           JUNCTION      0.00   224.59     0  01:46           0      0.0148     -10.376
  YS02001586           JUNCTION    511.99   511.99     0  01:53        1.26        1.27       0.121
  YS02001590           JUNCTION      0.00   318.07     0  02:02           0        1.12       0.046
  YS02001593           JUNCTION      0.00   318.11     0  01:50           0        1.12       0.025
  YS02001596           JUNCTION      0.00   318.13     0  01:53           0        1.12       0.208
  YS02001600           JUNCTION      0.00   318.07     0  02:01           0        1.13       0.632
  YS02001601           JUNCTION    905.34  1222.93     0  01:51        1.68        2.81       0.310
  YS02001602           JUNCTION      0.00   556.89     0  01:46           0        1.96       0.469
  YS02001605           JUNCTION      0.00   556.77     0  01:46           0        1.85       0.753
  YS02001607           JUNCTION      0.00   556.73     0  01:46           0        1.85       1.096
  YS02001610           JUNCTION      0.00   541.47     0  01:46           0        1.86       1.191
  YS02001613           JUNCTION      0.00   548.29     0  01:46           0        1.58       1.448
  YS02001616           JUNCTION      0.00   553.76     0  01:46           0        1.58       1.275
  YS02001619           JUNCTION    882.48   977.96     0  01:46        1.94        3.52       0.573
  YS02001622           JUNCTION      0.00   945.51     0  01:46           0        3.51       0.775
  YS02001625           JUNCTION      0.00   971.66     0  01:52           0        3.51       1.280
  YS02001629           JUNCTION      0.00   941.20     0  01:46           0        2.95       0.716
  YS02001633           JUNCTION    696.41  1451.87     0  01:48        1.27        4.17       0.774
  YS02001641           JUNCTION      0.00  1453.41     0  01:48           0        4.09       0.510
  YS02001644           JUNCTION    598.22  1926.62     0  01:48        1.04         5.1       0.515
  YS02001647           JUNCTION      0.00  1927.39     0  01:48           0        5.05       0.551
  YS02001649           JUNCTION      0.00  2199.36     0  01:48           0           6       0.629
  YS02001652           JUNCTION      0.00   729.13     0  01:51           0        1.01       2.301
  YS02001655           JUNCTION      0.15   727.44     0  01:51     0.00443        1.03       1.889
  YS02001658           JUNCTION      0.00   789.05     0  01:50           0        1.07       0.791
  YS02001661           JUNCTION      0.00   781.37     0  01:51           0        1.05       0.525
  YS02001664           JUNCTION    598.72   598.72     0  01:50       0.995       0.995      -0.039
  YS02001745           JUNCTION    373.06   430.89     0  01:50        0.57       0.619       0.753
  YS02001748           JUNCTION      0.04   573.67     0  01:50      0.0013       0.634       1.693
  YS02001751           JUNCTION      0.01   461.65     0  01:51    0.000317       0.605       3.174
  YS02001754           JUNCTION      0.26   460.66     0  01:51     0.00749       0.607       3.859
  YS02001757           JUNCTION      0.00  3427.16     0  01:51           0        8.43       1.144
  YS02001759           JUNCTION    541.34  1325.88     0  01:49       0.834        1.94       1.167
  YS02001762           JUNCTION      0.00   786.26     0  01:49           0        1.13       1.885
  YS02001765           JUNCTION      0.00   777.13     0  01:49           0        1.15       2.172
  YS02001767           JUNCTION      0.54   769.09     0  01:49      0.0154        1.18       3.091
  YS02001770           JUNCTION    738.84   752.71     0  01:50        1.23        1.25       2.555
  YS02001774           JUNCTION      0.00   410.58     0  01:48           0      0.0703      54.969
  YS02001779           JUNCTION      0.01   386.45     0  01:48    0.000144      0.0284      94.712
  YS02001783           JUNCTION      0.00  1110.74     0  01:48           0        3.14       0.219
  YS02001784           JUNCTION      1.06  1111.68     0  01:48      0.0305        3.16       0.340
  YS02001786           JUNCTION      0.06  1110.93     0  01:48     0.00162        3.15       0.423
  YS02001788           JUNCTION      0.07  1098.77     0  01:48     0.00204        3.14       0.439
  YS02001790           JUNCTION      0.15  1031.54     0  01:48     0.00446        3.13       0.549
  YS02001791           JUNCTION      0.00  1030.71     0  01:49           0        3.11       0.447
  YS02001793           JUNCTION      0.00  1037.16     0  01:49           0         3.1       0.528
  YS02001882           JUNCTION      0.00    70.71     0  01:47           0      0.0125       4.037
  YS02001884           JUNCTION      0.00   126.38     0  01:47           0      0.0485       4.937
  YS02001887           JUNCTION    580.40   580.74     0  01:49       0.865       0.898       0.471
  YS02001890           JUNCTION      0.00   580.88     0  01:50           0       0.858       0.603
  YS02001895           JUNCTION      0.00   549.89     0  01:48           0       0.843       0.171
  YS02001898           JUNCTION      0.00   557.15     0  01:48           0       0.842      -0.031
  YS02001901           JUNCTION      0.00   568.13     0  01:48           0       0.845       0.407
  YS02001904           JUNCTION      0.00   573.05     0  01:48           0       0.849       0.300
  YS02001907           JUNCTION      0.00  1581.15     0  01:50           0        2.58       0.695
  YS02001910           JUNCTION      0.00  1063.65     0  01:50           0        1.74       0.416
  YS02001915           JUNCTION    608.48  1062.71     0  01:50        1.06        1.79       0.068
  YS02001918           JUNCTION      0.00   577.62     0  01:48           0        0.76       0.013
  YS02001920           JUNCTION      2.87   543.68     0  01:48      0.0827       0.738       0.006
  YS02001923           JUNCTION      0.04   711.08     0  01:48     0.00109       0.641      -0.208
  YS02001926           JUNCTION      0.05  1016.18     0  01:48      0.0015       0.618      -0.100
  YS02001929           JUNCTION    310.94   816.84     0  01:49       0.597       0.602      -0.259
  YS02006553           JUNCTION      0.00   672.01     0  02:05           0        1.99       0.596
  YS02006556           JUNCTION      0.00   671.27     0  02:05           0        1.99       0.376
  YS02006558           JUNCTION    737.50  1159.94     0  01:48         1.2        3.17       0.113
  YS02006561           JUNCTION      0.00  1157.43     0  01:48           0        3.13      -0.022
  YS02163301           JUNCTION      0.00   925.11     0  01:47           0        2.94       0.821
  YS02163601           JUNCTION      0.11  1451.87     0  01:48     0.00317        4.12       0.731
  YS02164001           JUNCTION      0.00  1450.73     0  01:48           0        4.09       0.490
  CC-1                 OUTFALL       0.00   683.00     0  00:00           0       0.208       0.000
  CC-2                 OUTFALL       0.00   683.00     0  00:00           0       0.208       0.000
  JK-1                 OUTFALL       0.00  1000.00     0  00:00           0      0.0791       0.000
  JK-2                 OUTFALL       0.00  1000.00     0  00:00           0      0.0791       0.000
  WSC                  OUTFALL       0.00   818.14     0  03:12           0        14.9       0.000
  CC-storage           STORAGE       0.00  3428.51     0  01:51           0        10.4       0.384
  JK-storage           STORAGE       0.00  1041.33     0  01:49           0        3.23       0.474
  XR-storage           STORAGE     200.00   200.00     0  00:00        5.76        6.36     -41.886
  
  
  **********************
  Node Surcharge Summary
  **********************
  
  Surcharging occurs when water rises above the top of the highest conduit.
  ---------------------------------------------------------------------
                                               Max. Height   Min. Depth
                                   Hours       Above Crown    Below Rim
  Node                 Type      Surcharged         Meters       Meters
  ---------------------------------------------------------------------
  WS02006109           JUNCTION        1.68          0.015        1.805
  WS02006228           JUNCTION        1.68          0.013        2.187
  WS02006229           JUNCTION        1.69          0.024        2.426
  WS02006232           JUNCTION        1.75          0.050        1.430
  WS02006235           JUNCTION        1.69          0.055        1.235
  WS02006238           JUNCTION        1.72          0.089        1.341
  WS02006239           JUNCTION        1.70          0.067        1.223
  WS02006240           JUNCTION        1.70          0.080        1.310
  WS02006242           JUNCTION        1.78          0.175        0.645
  WS02006243           JUNCTION        1.72          0.134        0.636
  WS02006245           JUNCTION        1.72          0.146        0.704
  WS02006247           JUNCTION        1.73          0.182        0.578
  WS02006248           JUNCTION        1.71          0.138        0.242
  WS02006249           JUNCTION        1.73          0.311        0.079
  WS02006252           JUNCTION        2.26          1.100        0.000
  WS02006256           JUNCTION        3.66          2.050        0.000
  YS02001580           JUNCTION        0.45          0.450        0.000
  YS02001583           JUNCTION        0.46          0.500        0.000
  YS02001586           JUNCTION        0.67          0.510        0.000
  YS02001590           JUNCTION        0.79          0.750        0.000
  YS02001593           JUNCTION        0.79          0.840        0.000
  YS02001596           JUNCTION        1.01          0.969        0.101
  YS02001600           JUNCTION        1.52          1.190        0.000
  YS02001601           JUNCTION        6.40          1.440        0.000
  YS02001602           JUNCTION        6.37          1.270        0.000
  YS02001605           JUNCTION        6.35          1.180        0.000
  YS02001607           JUNCTION        1.28          0.680        0.000
  YS02001610           JUNCTION        1.43          0.680        0.000
  YS02001613           JUNCTION        1.29          0.700        0.000
  YS02001616           JUNCTION        1.12          0.610        0.000
  YS02001619           JUNCTION        1.06          0.610        0.000
  YS02001622           JUNCTION        1.13          0.620        0.000
  YS02001625           JUNCTION        6.25          0.780        0.000
  YS02001629           JUNCTION        1.02          0.470        0.000
  YS02001633           JUNCTION        6.26          1.051        0.009
  YS02001641           JUNCTION        6.24          0.978        0.122
  YS02001644           JUNCTION        6.24          0.920        0.000
  YS02001647           JUNCTION        6.20          0.751        0.149
  YS02001649           JUNCTION        6.20          0.909        0.141
  YS02001652           JUNCTION        6.18          0.772        0.358
  YS02001655           JUNCTION        0.89          0.755        0.445
  YS02001658           JUNCTION        0.07          0.695        0.605
  YS02001748           JUNCTION        0.01          0.457        0.733
  YS02001751           JUNCTION        0.37          0.720        0.480
  YS02001754           JUNCTION        6.18          0.692        0.458
  YS02001757           JUNCTION        6.20          0.881        0.329
  YS02001759           JUNCTION        6.19          0.856        0.354
  YS02001762           JUNCTION        6.19          0.849        0.301
  YS02001765           JUNCTION        6.19          0.828        0.272
  YS02001767           JUNCTION        6.19          0.853        0.177
  YS02001770           JUNCTION        6.19          0.920        0.000
  YS02001774           JUNCTION        6.19          1.050        0.000
  YS02001779           JUNCTION        5.75          0.680        0.000
  YS02001783           JUNCTION        0.56          1.244        0.356
  YS02001784           JUNCTION        0.56          1.173        0.317
  YS02001786           JUNCTION        0.54          1.027        0.403
  YS02001788           JUNCTION        0.54          1.305        0.175
  YS02001790           JUNCTION        6.19          1.088        0.069
  YS02001791           JUNCTION        6.20          0.801        1.119
  YS02001793           JUNCTION        6.21          0.887        1.713
  YS02001882           JUNCTION        0.41          0.797        0.033
  YS02001884           JUNCTION        0.42          0.808        0.062
  YS02001887           JUNCTION        0.45          0.836        0.114
  YS02001890           JUNCTION        0.47          0.760        0.000
  YS02001895           JUNCTION        0.40          0.568        0.182
  YS02001898           JUNCTION        0.39          0.541        0.199
  YS02001901           JUNCTION        0.44          0.679        0.191
  YS02001904           JUNCTION        0.43          0.648        0.202
  YS02001907           JUNCTION        0.62          0.950        0.000
  YS02001910           JUNCTION        0.49          1.023        0.077
  YS02001915           JUNCTION        0.41          0.982        0.018
  YS02001918           JUNCTION        0.32          0.810        0.000
  YS02001920           JUNCTION        0.33          1.112        0.028
  YS02001923           JUNCTION        0.01          0.820        0.000
  YS02001926           JUNCTION        0.02          0.900        0.000
  YS02001929           JUNCTION        0.01          0.780        0.000
  YS02006553           JUNCTION        0.63          1.137        0.053
  YS02006556           JUNCTION        0.56          1.279        0.071
  YS02006558           JUNCTION        0.55          1.339        0.061
  YS02006561           JUNCTION        0.35          0.828        0.322
  YS02163301           JUNCTION        6.25          1.023        0.007
  YS02163601           JUNCTION        6.26          1.080        0.000
  YS02164001           JUNCTION        6.24          1.009        0.091
  
  
  *********************
  Node Flooding Summary
  *********************
  
  Flooding refers to all water that overflows a node, whether it ponds or not.
  --------------------------------------------------------------------------
                                                             Total   Maximum
                                 Maximum   Time of Max       Flood    Ponded
                        Hours       Rate    Occurrence      Volume     Depth
  Node                 Flooded       LPS   days hr:min    10^6 ltr    Meters
  --------------------------------------------------------------------------
  WS02006252              0.01    258.19      0  03:41       0.000     0.000
  WS02006256              0.02    293.19      0  00:00       0.005     0.000
  YS02001580              0.01     80.83      0  01:46       0.000     0.000
  YS02001583              0.01    125.55      0  01:46       0.000     0.000
  YS02001586              0.35    194.55      0  01:53       0.140     0.000
  YS02001590              0.01     80.33      0  01:44       0.000     0.000
  YS02001593              0.01     18.67      0  01:44       0.000     0.000
  YS02001600              0.01      5.57      0  01:45       0.000     0.000
  YS02001601              0.58    825.08      0  01:51       0.835     0.000
  YS02001602              0.57     62.04      0  02:00       0.104     0.000
  YS02001605              0.01      3.81      0  01:46       0.000     0.000
  YS02001607              0.01      1.55      0  02:19       0.000     0.000
  YS02001610              0.43    381.16      0  01:53       0.299     0.000
  YS02001613              0.01      2.39      0  02:19       0.000     0.000
  YS02001616              0.01      2.54      0  02:19       0.000     0.000
  YS02001619              0.01      3.62      0  02:19       0.000     0.000
  YS02001622              0.01      1.50      0  02:19       0.000     0.000
  YS02001625              0.41    971.46      0  01:52       0.544     0.000
  YS02001629              0.06    235.06      0  01:46       0.013     0.000
  YS02001644              0.04    224.36      0  01:51       0.020     0.000
  YS02001770              0.01    132.44      0  01:49       0.000     0.000
  YS02001774              0.01     39.55      0  01:49       0.000     0.000
  YS02001779              0.01    322.40      0  01:49       0.005     0.000
  YS02001890              0.06     64.34      0  01:50       0.009     0.000
  YS02001907              0.26   1342.47      0  01:50       0.587     0.000
  YS02001918              0.01    259.15      0  01:49       0.004     0.000
  YS02001923              0.01    522.87      0  01:49       0.004     0.000
  YS02001926              0.01     33.22      0  01:49       0.000     0.000
  YS02001929              0.01    401.12      0  01:49       0.001     0.000
  YS02163601              0.01      8.74      0  01:48       0.000     0.000
  CC-storage              0.49    520.16      0  02:33       0.430     0.000
  JK-storage              6.19   1039.06      0  01:49       2.744     0.000
  
  
  **********************
  Storage Volume Summary
  **********************
  
  ------------------------------------------------------------------------------------------------
                         Average    Avg   Evap  Exfil     Maximum    Max    Time of Max    Maximum
                          Volume   Pcnt   Pcnt   Pcnt      Volume   Pcnt     Occurrence    Outflow
  Storage Unit           1000 m³   Full   Loss   Loss     1000 m³   Full    days hr:min        LPS
  ------------------------------------------------------------------------------------------------
  CC-storage               4.981   77.7    0.0    0.0       6.410  100.0       0  02:33    1783.53
  JK-storage               0.232   79.6    0.0    0.0       0.291  100.0       0  01:48    2300.00
  XR-storage               0.034    2.4    0.0    0.0       0.600   41.7       0  00:00     380.00
  
  
  ***********************
  Outfall Loading Summary
  ***********************
  
  -----------------------------------------------------------
                         Flow       Avg       Max       Total
                         Freq      Flow      Flow      Volume
  Outfall Node           Pcnt       LPS       LPS    10^6 ltr
  -----------------------------------------------------------
  CC-1                   1.26    683.00    683.00       0.208
  CC-2                   1.26    683.00    683.00       0.208
  JK-1                   1.18    347.46   1000.00       0.079
  JK-2                   1.18    347.46   1000.00       0.079
  WSC                   99.93    564.13    818.14      14.864
  -----------------------------------------------------------
  System                20.96   2625.06   3366.35      15.439
  
  
  ********************
  Link Flow Summary
  ********************
  
  -----------------------------------------------------------------------------
                                 Maximum  Time of Max   Maximum    Max/    Max/
                                  |Flow|   Occurrence   |Veloc|    Full    Full
  Link                 Type          LPS  days hr:min     m/sec    Flow   Depth
  -----------------------------------------------------------------------------
  1                    CONDUIT    818.14     0  03:12      3.15    0.28    0.37
  WS02001211WS02001212 CONDUIT    390.85     0  03:36      0.78    0.30    0.64
  WS02001212WS02001213 CONDUIT    392.60     0  03:35      1.32    0.61    0.45
  WS02001213WS02003059 CONDUIT    395.64     0  03:35      0.85    0.65    0.75
  WS02003059WS02003060 CONDUIT    399.94     0  03:35      0.95    0.26    0.63
  WS02003060WS02003069 CONDUIT    816.03     0  02:54      1.80    0.32    0.42
  WS02003066WSF200     CONDUIT    411.87     0  02:53      2.69    0.07    0.19
  WS02003067WS02003066 CONDUIT    411.87     0  02:53      1.04    0.13    0.38
  WS02003069WS02003072 CONDUIT    816.34     0  02:54      1.55    0.39    0.47
  WS02003072WS02003073 CONDUIT    816.33     0  03:11      1.64    1.76    0.45
  WS02004138WS02004139 CONDUIT    395.20     0  00:00      3.65    0.08    0.43
  WS02004139WS02001211 CONDUIT    381.78     0  03:36      0.91    0.48    0.59
  WS02004401WS02004402 CONDUIT    412.22     0  03:23      0.99    0.49    0.77
  WS02004402WS02004403 CONDUIT    412.17     0  03:23      0.99    0.59    0.79
  WS02004403WS02004404 CONDUIT    412.12     0  03:23      0.93    0.30    0.84
  WS02004404WS02004405 CONDUIT    412.33     0  03:23      1.10    4.04    0.88
  WS02004405WS02004406 CONDUIT    412.39     0  03:23      1.03    0.81    0.88
  WS02004406WS02004407 CONDUIT    412.11     0  03:23      0.89    0.18    0.57
  WS02004407WS02004409 CONDUIT    411.99     0  03:24      1.42    0.15    0.42
  WS02004409WS02004410 CONDUIT    411.96     0  02:51      0.91    0.53    0.58
  WS02004410WS02004411 CONDUIT    411.93     0  02:51      0.86    0.56    0.60
  WS02004411WS02004412 CONDUIT    411.92     0  02:52      0.81    0.59    0.61
  WS02004412WS02004413 CONDUIT    411.93     0  02:52      0.70    0.28    0.70
  WS02004413WS02003067 CONDUIT    411.87     0  02:52      0.96    0.18    0.53
  WS02006109WS02006110 CONDUIT    411.73     0  02:25      0.84    0.79    0.94
  WS02006110WS02006113 CONDUIT    412.00     0  02:19      1.03    0.37    0.75
  WS02006111WS02006112 CONDUIT    413.72     0  02:53      1.83    0.20    0.65
  WS02006112WS02006115 CONDUIT    412.57     0  03:22      0.71    0.24    0.78
  WS02006113WS02006111 CONDUIT    423.84     0  03:21      2.25    0.51    0.40
  WS02006115WS02006116 CONDUIT    412.32     0  02:53      0.98    0.53    0.66
  WS02006116WS02004401 CONDUIT    412.28     0  03:22      1.00    0.57    0.74
  WS02006228WS02006109 CONDUIT    410.50     0  02:25      1.06    1.79    1.00
  WS02006229WS02006228 CONDUIT    410.50     0  02:25      1.13    1.36    1.00
  WS02006230WS02006229 CONDUIT    410.49     0  02:25      1.22    9.14    1.00
  WS02006231WS02006230 CONDUIT    400.39     0  02:28      1.37    6.07    0.77
  WS02006232WS02006231 CONDUIT    400.45     0  02:27      1.08    0.84    0.92
  WS02006234WS02006232 CONDUIT    400.45     0  02:27      1.40    0.81    1.00
  WS02006235WS02006234 CONDUIT    401.59     0  01:49      1.29    4.24    0.99
  WS02006238WS02006235 CONDUIT    402.66     0  02:21      1.54    0.90    1.00
  WS02006239WS02006238 CONDUIT    402.16     0  02:03      1.21    1.29    1.00
  WS02006240WS02006239 CONDUIT    401.29     0  02:09      1.30    1.26    1.00
  WS02006242WS02006240 CONDUIT    401.10     0  02:32      1.17    1.59    1.00
  WS02006243WS02006242 CONDUIT    401.10     0  02:22      1.41    0.86    1.00
  WS02006245WS02006243 CONDUIT    401.24     0  02:39      1.45    1.19    1.00
  WS02006247WS02006245 CONDUIT    403.54     0  02:49      1.43    3.20    1.00
  WS02006248WS02006247 CONDUIT    400.95     0  01:51      1.46    0.87    1.00
  WS02006249WS02006248 CONDUIT    401.25     0  02:10      1.39    2.20    1.00
  WS02006251WS02006249 CONDUIT    472.40     0  04:01      1.99    1.36    1.00
  WS02006252WS02006251 CONDUIT    404.58     0  03:51     25.19    1.49    1.00
  WS02006256WS02006235 CONDUIT    288.91     0  00:00      4.23    3.06    1.00
  WSF200WS02003060     CONDUIT    411.87     0  02:53      1.43    0.09    0.30
  YS02001580YS02001583 CONDUIT    138.61     0  01:46      0.82    0.54    1.00
  YS02001583YS02001586 CONDUIT    193.47     0  01:46      0.82    0.29    1.00
  YS02001586YS02001590 CONDUIT    318.07     0  02:02      1.28    0.56    1.00
  YS02001590YS02001593 CONDUIT    318.11     0  01:50      1.13    2.00    1.00
  YS02001593YS02001596 CONDUIT    318.13     0  01:53      1.62    0.50    1.00
  YS02001596YS02001600 CONDUIT    318.07     0  02:01      1.12    0.62    1.00
  YS02001600YS02001601 CONDUIT    317.94     0  01:59      1.12    0.55    1.00
  YS02001601YS02001602 CONDUIT    556.89     0  01:46      1.97    2.01    1.00
  YS02001602YS02001605 CONDUIT    556.77     0  01:46      1.97   11.78    1.00
  YS02001605YS02001607 CONDUIT    556.73     0  01:46      1.97    3.05    1.00
  YS02001607YS02001610 CONDUIT    541.47     0  01:46      0.69    0.51    1.00
  YS02001610YS02001613 CONDUIT    548.29     0  01:46      0.70    0.63    1.00
  YS02001613YS02001616 CONDUIT    553.76     0  01:46      0.71    0.47    1.00
  YS02001616YS02001619 CONDUIT    529.68     0  01:46      0.68    0.92    1.00
  YS02001619YS02001622 CONDUIT    945.51     0  01:46      1.24    1.39    1.00
  YS02001622YS02001625 CONDUIT    939.84     0  01:46      1.20    0.50    1.00
  YS02001625YS02001629 CONDUIT    941.20     0  01:46      1.20    0.45    1.00
  YS02001629YS02163301 CONDUIT    925.11     0  01:47      1.18    1.14    1.00
  YS02001633YS02163601 CONDUIT   1451.76     0  01:48      1.85    1.52    1.00
  YS02001641YS02001644 CONDUIT   1455.48     0  01:48      1.85    4.71    1.00
  YS02001644YS02001647 CONDUIT   1927.39     0  01:48      2.47    1.13    1.00
  YS02001647YS02001649 CONDUIT   1914.31     0  01:48      2.44    1.01    1.00
  YS02001649YS02001757 CONDUIT   2201.04     0  01:48      2.80    1.34    1.00
  YS02001652YS02001649 CONDUIT    732.26     0  01:51      0.93    0.36    1.00
  YS02001655YS02001652 CONDUIT    729.13     0  01:51      1.41    0.35    1.00
  YS02001658YS02001655 CONDUIT    727.28     0  01:51      2.00    0.31    1.00
  YS02001661YS02001658 CONDUIT    789.05     0  01:50      2.44    0.31    0.98
  YS02001664YS02001661 CONDUIT    781.37     0  01:51      2.42    0.25    0.71
  YS02001745YS02001748 CONDUIT    573.62     0  01:50      2.30    0.22    0.86
  YS02001748YS02001751 CONDUIT    461.64     0  01:51      1.80    0.23    1.00
  YS02001751YS02001754 CONDUIT    460.40     0  01:51      1.50    0.22    1.00
  YS02001754YS02001757 CONDUIT    461.96     0  01:51      0.59    0.19    1.00
  YS02001757CaochengTiaoxuchi CONDUIT   3428.51     0  01:51      4.38    1.48    1.00
  YS02001759YS02001757 CONDUIT   1331.37     0  01:49      1.70    0.95    1.00
  YS02001762YS02001759 CONDUIT    795.06     0  01:49      1.01    0.92    1.00
  YS02001765YS02001762 CONDUIT    786.26     0  01:49      1.00    0.74    1.00
  YS02001767YS02001765 CONDUIT    777.13     0  01:49      0.99    0.98    1.00
  YS02001770YS02001767 CONDUIT    768.56     0  01:49      0.98    3.04    1.00
  YS02001774YS02001770 CONDUIT    410.58     0  01:48      0.52    0.26    1.00
  YS02001779YS02001774 CONDUIT    386.44     0  01:48      0.51    0.19    1.00
  YS02001783YS02001784 CONDUIT   1110.62     0  01:48      2.21    1.53    1.00
  YS02001784YS02001785 CONDUIT   1110.88     0  01:48      2.21    2.59    1.00
  YS02001786YS02001788 CONDUIT   1098.70     0  01:48      2.38    2.12    1.00
  YS02001788YS02001790 CONDUIT   1031.39     0  01:48      2.41    0.76    1.00
  YS02001790YS02001791 CONDUIT   1030.71     0  01:49      2.92    1.12    1.00
  YS02001791YS02001793 CONDUIT   1037.16     0  01:49      5.69    0.45    1.00
  YS02001793JiankangQianchi CONDUIT   1041.33     0  01:49      1.57    0.08    1.00
  YS02001882YS02001884 CONDUIT     70.71     0  01:47      0.14    0.08    1.00
  YS02001884YS02001887 CONDUIT    126.38     0  01:47      0.16    0.17    1.00
  YS02001887YS02001890 CONDUIT    580.88     0  01:50      0.74    0.99    1.00
  YS02001890YS02001895 CONDUIT    549.89     0  01:48      0.70    0.26    1.00
  YS02001895YS02001898 CONDUIT    557.15     0  01:48      0.71    0.97    1.00
  YS02001898YS02001901 CONDUIT    568.13     0  01:48      0.72    0.37    1.00
  YS02001901YS02001904 CONDUIT    573.05     0  01:48      0.73    0.89    1.00
  YS02001904YS02001907 CONDUIT    578.98     0  01:48      0.74    0.20    1.00
  YS02001907YS02006553 CONDUIT    672.01     0  02:05      0.75    0.79    1.00
  YS02001910YS02001907 CONDUIT   1065.55     0  01:50      1.36    0.60    1.00
  YS02001915YS02001910 CONDUIT   1063.65     0  01:50      1.35    0.53    1.00
  YS02001918YS02001915 CONDUIT    577.62     0  01:48      0.76    0.32    1.00
  YS02001920YS02001918 CONDUIT    540.81     0  01:48      0.69    0.52    1.00
  YS02001923YS02001920 CONDUIT    516.44     0  01:48      0.75    0.23    1.00
  YS02001926YS02001923 CONDUIT    766.66     0  01:48      1.21    1.09    1.00
  YS02001929YS02001926 CONDUIT    541.89     0  01:49      1.22    0.26    1.00
  YS02006553YS02006556 CONDUIT    671.27     0  02:05      0.85    0.57    1.00
  YS02006556YS02006558 CONDUIT    673.89     0  02:05      0.86    0.53    1.00
  YS02006558YS02006561 CONDUIT   1157.43     0  01:48      4.09    2.56    1.00
  YS02006561YS02001783 CONDUIT   1110.74     0  01:48      2.27    0.58    1.00
  YS02163301YS02001633 CONDUIT    925.18     0  01:47      1.18    0.87    1.00
  YS02163601YS02164001 CONDUIT   1450.73     0  01:48      1.85    1.29    1.00
  YS02164001YS02001641 CONDUIT   1453.41     0  01:48      1.85    1.98    1.00
  CC-R1                PUMP       683.00     0  00:00              1.00
  CC-R2                PUMP       683.00     0  00:00              1.00
  CC-S1                PUMP       200.00     0  00:00              1.00
  CC-S2                PUMP       200.00     0  00:00              1.00
  JK-R1                PUMP      1000.00     0  00:00              1.00
  JK-R2                PUMP      1000.00     0  00:00              1.00
  JK-S                 PUMP       300.00     0  00:00              1.00
  XR-1                 PUMP        95.00     0  00:00              1.00
  XR-2                 PUMP        95.00     0  00:00              1.00
  XR-3                 PUMP        95.00     0  00:00              1.00
  XR-4                 PUMP        95.00     0  00:00              1.00
  
  
  ***************************
  Flow Classification Summary
  ***************************
  
  -------------------------------------------------------------------------------------
                      Adjusted    ---------- Fraction of Time in Flow Class ---------- 
                       /Actual         Up    Down  Sub   Sup   Up    Down  Norm  Inlet 
  Conduit               Length    Dry  Dry   Dry   Crit  Crit  Crit  Crit  Ltd   Ctrl  
  -------------------------------------------------------------------------------------
  1                       1.00   0.00  0.00  0.00  0.00  1.00  0.00  0.00  0.23  0.00
  WS02001211WS02001212    1.00   0.00  0.00  0.00  1.00  0.00  0.00  0.00  0.00  0.00
  WS02001212WS02001213    1.00   0.00  0.00  0.00  0.44  0.00  0.56  0.00  0.00  0.00
  WS02001213WS02003059    1.00   0.00  0.00  0.00  0.99  0.00  0.00  0.00  0.00  0.00
  WS02003059WS02003060    1.00   0.00  0.00  0.00  1.00  0.00  0.00  0.00  0.00  0.00
  WS02003060WS02003069    1.00   0.00  0.00  0.00  0.99  0.01  0.00  0.00  0.00  0.00
  WS02003066WSF200        1.00   0.02  0.10  0.00  0.00  0.88  0.00  0.00  0.86  0.00
  WS02003067WS02003066    1.00   0.10  0.02  0.00  0.89  0.00  0.00  0.00  0.00  0.00
  WS02003069WS02003072    1.00   0.00  0.00  0.00  0.99  0.01  0.00  0.00  0.00  0.00
  WS02003072WS02003073    1.00   0.00  0.00  0.00  0.00  0.00  0.00  1.00  0.00  0.00
  WS02004138WS02004139    1.00   0.00  0.00  0.00  0.99  0.01  0.00  0.00  1.00  0.00
  WS02004139WS02001211    1.00   0.00  0.00  0.00  1.00  0.00  0.00  0.00  0.00  0.00
  WS02004401WS02004402    1.00   0.02  0.00  0.00  0.98  0.00  0.00  0.00  0.00  0.00
  WS02004402WS02004403    1.00   0.02  0.00  0.00  0.98  0.00  0.00  0.00  0.00  0.00
  WS02004403WS02004404    1.00   0.00  0.03  0.00  0.97  0.00  0.00  0.00  0.00  0.00
  WS02004404WS02004405    1.00   0.00  0.00  0.00  1.00  0.00  0.00  0.00  0.01  0.00
  WS02004405WS02004406    1.00   0.00  0.00  0.00  1.00  0.00  0.00  0.00  0.00  0.00
  WS02004406WS02004407    1.00   0.00  0.05  0.00  0.95  0.00  0.00  0.00  0.00  0.00
  WS02004407WS02004409    1.00   0.05  0.00  0.00  0.94  0.01  0.00  0.00  0.94  0.00
  WS02004409WS02004410    1.00   0.05  0.00  0.00  0.95  0.00  0.00  0.00  0.02  0.00
  WS02004410WS02004411    1.00   0.05  0.00  0.00  0.95  0.00  0.00  0.00  0.00  0.00
  WS02004411WS02004412    1.00   0.05  0.00  0.00  0.95  0.00  0.00  0.00  0.00  0.00
  WS02004412WS02004413    1.00   0.05  0.00  0.00  0.94  0.00  0.00  0.00  0.01  0.00
  WS02004413WS02003067    1.00   0.06  0.04  0.00  0.00  0.00  0.90  0.00  0.00  0.00
  WS02006109WS02006110    1.00   0.00  0.01  0.00  0.98  0.00  0.01  0.00  0.00  0.00
  WS02006110WS02006113    1.00   0.01  0.01  0.00  0.98  0.00  0.00  0.00  0.00  0.00
  WS02006111WS02006112    1.00   0.02  0.00  0.00  0.98  0.00  0.00  0.00  0.98  0.00
  WS02006112WS02006115    1.00   0.02  0.00  0.00  0.97  0.00  0.00  0.00  0.00  0.00
  WS02006113WS02006111    1.00   0.02  0.00  0.00  0.00  0.98  0.00  0.00  0.14  0.00
  WS02006115WS02006116    1.00   0.02  0.00  0.00  0.97  0.00  0.00  0.01  0.00  0.00
  WS02006116WS02004401    1.00   0.02  0.00  0.00  0.98  0.00  0.00  0.00  0.00  0.00
  WS02006228WS02006109    1.00   0.00  0.00  0.00  1.00  0.00  0.00  0.00  0.00  0.00
  WS02006229WS02006228    1.00   0.00  0.00  0.00  0.99  0.00  0.00  0.01  0.00  0.00
  WS02006230WS02006229    1.00   0.00  0.00  0.00  0.99  0.00  0.00  0.01  0.00  0.00
  WS02006231WS02006230    1.00   0.00  0.00  0.00  0.23  0.00  0.77  0.00  0.00  0.00
  WS02006232WS02006231    1.00   0.00  0.00  0.00  0.99  0.00  0.01  0.00  0.00  0.00
  WS02006234WS02006232    1.00   0.00  0.00  0.00  1.00  0.00  0.00  0.00  0.45  0.00
  WS02006235WS02006234    1.00   0.00  0.00  0.00  0.51  0.00  0.49  0.00  0.00  0.00
  WS02006238WS02006235    1.00   0.00  0.00  0.00  1.00  0.00  0.00  0.00  0.00  0.00
  WS02006239WS02006238    1.00   0.00  0.00  0.00  1.00  0.00  0.00  0.00  0.54  0.00
  WS02006240WS02006239    1.00   0.00  0.00  0.00  0.42  0.00  0.00  0.58  0.02  0.00
  WS02006242WS02006240    1.00   0.00  0.00  0.00  0.99  0.00  0.01  0.00  0.00  0.00
  WS02006243WS02006242    1.00   0.00  0.00  0.00  0.99  0.00  0.00  0.01  0.65  0.00
  WS02006245WS02006243    1.00   0.00  0.00  0.00  0.47  0.00  0.00  0.53  0.00  0.00
  WS02006247WS02006245    1.00   0.00  0.00  0.00  0.99  0.00  0.00  0.01  0.00  0.00
  WS02006248WS02006247    1.00   0.00  0.00  0.00  0.99  0.00  0.00  0.01  0.16  0.00
  WS02006249WS02006248    1.00   0.00  0.00  0.00  0.34  0.00  0.66  0.00  0.00  0.00
  WS02006251WS02006249    1.00   0.00  0.00  0.00  0.99  0.00  0.00  0.00  0.67  0.00
  WS02006252WS02006251    1.00   0.00  0.22  0.00  0.00  0.00  0.78  0.00  0.04  0.00
  WS02006256WS02006235    1.00   0.00  0.00  0.00  1.00  0.00  0.00  0.00  0.00  0.00
  WSF200WS02003060        1.00   0.00  0.02  0.00  0.98  0.00  0.00  0.00  0.67  0.00
  YS02001580YS02001583    1.00   0.22  0.59  0.00  0.19  0.00  0.00  0.00  0.68  0.00
  YS02001583YS02001586    1.00   0.49  0.26  0.00  0.24  0.00  0.00  0.00  0.69  0.00
  YS02001586YS02001590    1.00   0.13  0.00  0.00  0.38  0.04  0.00  0.45  0.31  0.00
  YS02001590YS02001593    1.00   0.13  0.01  0.00  0.14  0.00  0.73  0.00  0.00  0.00
  YS02001593YS02001596    1.00   0.13  0.00  0.00  0.79  0.00  0.00  0.07  0.65  0.00
  YS02001596YS02001600    1.00   0.14  0.00  0.00  0.81  0.00  0.00  0.05  0.01  0.00
  YS02001600YS02001601    1.00   0.13  0.01  0.00  0.86  0.00  0.00  0.00  0.04  0.00
  YS02001601YS02001602    1.00   0.13  0.01  0.00  0.87  0.00  0.00  0.00  0.00  0.00
  YS02001602YS02001605    1.00   0.13  0.00  0.00  0.86  0.00  0.00  0.00  0.00  0.00
  YS02001605YS02001607    1.00   0.14  0.00  0.00  0.86  0.00  0.00  0.00  0.00  0.00
  YS02001607YS02001610    1.00   0.13  0.01  0.00  0.86  0.00  0.00  0.00  0.01  0.00
  YS02001610YS02001613    1.00   0.13  0.00  0.00  0.87  0.00  0.00  0.00  0.00  0.00
  YS02001613YS02001616    1.00   0.13  0.00  0.00  0.87  0.00  0.00  0.00  0.00  0.00
  YS02001616YS02001619    1.00   0.13  0.00  0.00  0.87  0.00  0.00  0.00  0.00  0.00
  YS02001619YS02001622    1.00   0.13  0.00  0.00  0.87  0.00  0.00  0.00  0.00  0.00
  YS02001622YS02001625    1.00   0.13  0.00  0.00  0.87  0.00  0.00  0.00  0.04  0.00
  YS02001625YS02001629    1.00   0.13  0.05  0.00  0.79  0.00  0.03  0.00  0.00  0.00
  YS02001629YS02163301    1.00   0.15  0.01  0.00  0.84  0.00  0.00  0.00  0.00  0.00
  YS02001633YS02163601    1.00   0.00  0.01  0.00  0.99  0.00  0.00  0.00  0.15  0.00
  YS02001641YS02001644    1.00   0.00  0.01  0.00  0.99  0.00  0.00  0.00  0.00  0.00
  YS02001644YS02001647    1.00   0.00  0.17  0.00  0.83  0.00  0.00  0.00  0.00  0.00
  YS02001647YS02001649    1.00   0.00  0.17  0.00  0.83  0.00  0.00  0.00  0.02  0.00
  YS02001649YS02001757    1.00   0.00  0.00  0.00  0.98  0.01  0.00  0.00  0.18  0.00
  YS02001652YS02001649    1.00   0.00  0.00  0.00  0.97  0.03  0.00  0.00  0.16  0.00
  YS02001655YS02001652    1.00   0.00  0.00  0.00  0.79  0.00  0.00  0.21  0.00  0.00
  YS02001658YS02001655    1.00   0.00  0.14  0.00  0.78  0.08  0.00  0.00  0.01  0.00
  YS02001661YS02001658    1.00   0.14  0.00  0.00  0.77  0.09  0.00  0.00  0.00  0.00
  YS02001664YS02001661    1.00   0.13  0.00  0.00  0.84  0.04  0.00  0.00  0.86  0.00
  YS02001745YS02001748    1.00   0.00  0.00  0.00  0.77  0.00  0.00  0.23  0.00  0.00
  YS02001748YS02001751    1.00   0.00  0.00  0.00  0.91  0.09  0.00  0.00  0.12  0.00
  YS02001751YS02001754    1.00   0.00  0.00  0.00  0.78  0.00  0.00  0.22  0.00  0.00
  YS02001754YS02001757    1.00   0.00  0.00  0.00  1.00  0.00  0.00  0.00  0.21  0.00
  YS02001757CaochengTiaoxuchi    1.00   0.00  0.00  0.00  0.98  0.02  0.00  0.00  0.20  0.00
  YS02001759YS02001757    1.00   0.00  0.00  0.00  1.00  0.00  0.00  0.00  0.06  0.00
  YS02001762YS02001759    1.00   0.00  0.00  0.00  1.00  0.00  0.00  0.00  0.03  0.00
  YS02001765YS02001762    1.00   0.00  0.00  0.00  1.00  0.00  0.00  0.00  0.15  0.00
  YS02001767YS02001765    1.00   0.00  0.00  0.00  1.00  0.00  0.00  0.00  0.00  0.00
  YS02001770YS02001767    1.00   0.00  0.00  0.00  1.00  0.00  0.00  0.00  0.00  0.00
  YS02001774YS02001770    1.00   0.00  0.13  0.00  0.87  0.00  0.00  0.00  0.03  0.00
  YS02001779YS02001774    1.00   0.00  0.00  0.00  1.00  0.00  0.00  0.00  0.17  0.00
  YS02001783YS02001784    1.00   0.00  0.18  0.00  0.82  0.00  0.00  0.00  0.00  0.00
  YS02001784YS02001785    1.00   0.00  0.00  0.00  1.00  0.00  0.00  0.00  0.17  0.00
  YS02001786YS02001788    1.00   0.00  0.00  0.00  0.96  0.04  0.00  0.00  0.00  0.00
  YS02001788YS02001790    1.00   0.00  0.00  0.00  0.96  0.04  0.00  0.00  0.19  0.00
  YS02001790YS02001791    1.00   0.00  0.00  0.00  0.79  0.21  0.00  0.00  0.02  0.00
  YS02001791YS02001793    1.00   0.00  0.00  0.00  0.78  0.22  0.00  0.00  0.00  0.00
  YS02001793JiankangQianchi    1.00   0.00  0.00  0.00  0.93  0.06  0.00  0.00  0.19  0.00
  YS02001882YS02001884    1.00   0.15  0.01  0.00  0.84  0.00  0.00  0.00  0.00  0.00
  YS02001884YS02001887    1.00   0.06  0.05  0.00  0.89  0.00  0.00  0.00  0.00  0.00
  YS02001887YS02001890    1.00   0.00  0.00  0.00  0.97  0.00  0.03  0.00  0.00  0.00
  YS02001890YS02001895    1.00   0.00  0.16  0.00  0.84  0.00  0.00  0.00  0.00  0.00
  YS02001895YS02001898    1.00   0.16  0.00  0.00  0.82  0.00  0.02  0.00  0.00  0.00
  YS02001898YS02001901    1.00   0.17  0.00  0.00  0.83  0.00  0.00  0.00  0.01  0.00
  YS02001901YS02001904    1.00   0.17  0.00  0.00  0.83  0.00  0.00  0.00  0.00  0.00
  YS02001904YS02001907    1.00   0.00  0.16  0.00  0.83  0.00  0.00  0.00  0.00  0.00
  YS02001907YS02006553    1.00   0.00  0.02  0.00  0.98  0.00  0.00  0.00  0.00  0.00
  YS02001910YS02001907    1.00   0.00  0.00  0.00  0.97  0.00  0.00  0.03  0.12  0.00
  YS02001915YS02001910    1.00   0.00  0.00  0.00  0.97  0.03  0.00  0.00  0.16  0.00
  YS02001918YS02001915    1.00   0.00  0.01  0.00  0.98  0.02  0.00  0.00  0.77  0.00
  YS02001920YS02001918    1.00   0.00  0.01  0.00  0.99  0.00  0.00  0.00  0.00  0.00
  YS02001923YS02001920    1.00   0.00  0.00  0.00  1.00  0.00  0.00  0.00  0.93  0.00
  YS02001926YS02001923    1.00   0.00  0.07  0.00  0.05  0.00  0.87  0.00  0.00  0.00
  YS02001929YS02001926    1.00   0.00  0.13  0.00  0.87  0.00  0.00  0.00  0.83  0.00
  YS02006553YS02006556    1.00   0.01  0.00  0.00  0.99  0.00  0.00  0.00  0.03  0.00
  YS02006556YS02006558    1.00   0.00  0.00  0.00  1.00  0.00  0.00  0.00  0.00  0.00
  YS02006558YS02006561    1.00   0.18  0.00  0.00  0.06  0.76  0.00  0.00  0.18  0.00
  YS02006561YS02001783    1.00   0.18  0.00  0.00  0.78  0.04  0.00  0.00  0.73  0.00
  YS02163301YS02001633    1.00   0.00  0.15  0.00  0.85  0.00  0.00  0.00  0.00  0.00
  YS02163601YS02164001    1.00   0.00  0.08  0.00  0.92  0.00  0.00  0.00  0.00  0.00
  YS02164001YS02001641    1.00   0.01  0.07  0.00  0.92  0.00  0.00  0.00  0.05  0.00
  
  
  *************************
  Conduit Surcharge Summary
  *************************
  
  ----------------------------------------------------------------------------
                                                           Hours        Hours 
                         --------- Hours Full --------   Above Full   Capacity
  Conduit                Both Ends  Upstream  Dnstream   Normal Flow   Limited
  ----------------------------------------------------------------------------
  WS02003072WS02003073        0.01      0.01      0.01      2.96         0.01
  WS02004404WS02004405        0.01      0.01      0.01      2.60         0.01
  WS02006109WS02006110        0.01      0.01      1.74      0.01         0.01
  WS02006110WS02006113        0.01      0.01      1.72      0.01         0.01
  WS02006111WS02006112        0.01      0.01      1.79      0.01         0.01
  WS02006228WS02006109        1.68      1.74      1.68      2.05         1.68
  WS02006229WS02006228        1.68      1.69      1.68      1.89         1.68
  WS02006230WS02006229        1.79      1.81      1.79      2.93         1.79
  WS02006231WS02006230        0.01      0.01      0.01      2.71         0.01
  WS02006232WS02006231        0.01      0.01      1.75      0.01         0.01
  WS02006234WS02006232        1.65      1.65      1.75      0.01         0.01
  WS02006235WS02006234        0.01      0.01      1.69      2.54         0.01
  WS02006238WS02006235        1.70      1.70      1.76      0.01         0.01
  WS02006239WS02006238        1.72      1.75      1.72      1.96         1.72
  WS02006240WS02006239        1.70      1.71      1.70      2.00         1.70
  WS02006242WS02006240        1.70      1.70      1.80      2.12         0.01
  WS02006243WS02006242        1.72      1.72      1.78      0.01         0.01
  WS02006245WS02006243        1.72      1.72      1.72      2.10         1.71
  WS02006247WS02006245        1.72      1.74      1.72      2.26         1.72
  WS02006248WS02006247        1.72      1.72      1.73      0.01         0.01
  WS02006249WS02006248        1.71      1.71      1.73      2.24         0.01
  WS02006251WS02006249        1.73      1.74      1.73      2.21         1.73
  WS02006252WS02006251        2.26      2.26      2.26      2.26         0.01
  WS02006256WS02006235        2.64      2.64      3.65      0.02         0.01
  YS02001580YS02001583        0.45      0.45      0.50      0.01         0.01
  YS02001583YS02001586        0.46      0.46      0.67      0.01         0.01
  YS02001586YS02001590        0.68      0.68      0.79      0.01         0.01
  YS02001590YS02001593        0.79      0.79      0.81      0.75         0.01
  YS02001593YS02001596        0.80      0.80      1.01      0.01         0.01
  YS02001596YS02001600        1.18      1.18      1.52      0.01         0.01
  YS02001600YS02001601        2.25      2.25      6.40      0.01         0.01
  YS02001601YS02001602        6.37      6.37      6.41      0.90         0.01
  YS02001602YS02001605        6.35      6.35      6.37      2.04         0.09
  YS02001605YS02001607        6.33      6.35      6.33      1.21         1.14
  YS02001607YS02001610        1.28      1.28      1.43      0.01         0.01
  YS02001610YS02001613        1.29      1.29      1.43      0.01         0.01
  YS02001613YS02001616        1.12      1.12      1.29      0.01         0.01
  YS02001616YS02001619        1.06      1.06      1.12      0.01         0.01
  YS02001619YS02001622        1.06      1.06      1.13      0.61         0.51
  YS02001622YS02001625        1.13      1.13      6.25      0.01         0.01
  YS02001625YS02001629        1.02      1.02      6.25      0.01         0.01
  YS02001629YS02163301        6.25      6.25      6.25      0.02         0.07
  YS02001633YS02163601        6.26      6.26      6.26      0.24         0.22
  YS02001641YS02001644        6.24      6.24      6.24      1.33         1.14
  YS02001644YS02001647        6.20      6.20      6.24      0.04         0.01
  YS02001647YS02001649        6.20      6.20      6.20      0.01         0.01
  YS02001649YS02001757        6.20      6.20      6.20      0.20         0.19
  YS02001652YS02001649        6.19      6.19      6.20      0.01         0.01
  YS02001655YS02001652        0.88      0.88      6.18      0.01         0.01
  YS02001658YS02001655        0.07      0.07      0.89      0.01         0.01
  YS02001661YS02001658        0.01      0.01      0.07      0.01         0.01
  YS02001664YS02001661        0.01      0.01      0.01      0.01         0.01
  YS02001745YS02001748        0.01      0.01      0.01      0.01         0.01
  YS02001748YS02001751        0.02      0.02      0.36      0.01         0.01
  YS02001751YS02001754        0.36      0.36      6.18      0.01         0.01
  YS02001754YS02001757        6.18      6.18      6.20      0.01         0.01
  YS02001757CaochengTiaoxuchi        6.14      6.20      6.14      0.26         0.17
  YS02001759YS02001757        6.19      6.19      6.20      0.01         0.01
  YS02001762YS02001759        6.19      6.19      6.19      0.01         0.02
  YS02001765YS02001762        6.19      6.19      6.19      0.01         0.01
  YS02001767YS02001765        6.19      6.19      6.19      0.01         0.02
  YS02001770YS02001767        6.19      6.19      6.19      0.39         0.51
  YS02001774YS02001770        6.19      6.19      6.19      0.01         0.01
  YS02001779YS02001774        5.74      5.74      6.19      0.01         0.01
  YS02001783YS02001784        0.56      0.56      0.56      0.52         0.48
  YS02001784YS02001785        0.54      0.56      0.54      0.73         0.54
  YS02001786YS02001788        0.54      0.54      0.54      0.64         0.54
  YS02001788YS02001790        0.54      0.54      6.19      0.01         0.01
  YS02001790YS02001791        6.19      6.19      6.20      0.31         0.29
  YS02001791YS02001793        6.20      6.20      6.21      0.01         0.01
  YS02001793JiankangQianchi        6.21      6.21      6.36      0.01         0.01
  YS02001882YS02001884        0.41      0.41      0.42      0.01         0.01
  YS02001884YS02001887        0.44      0.44      0.45      0.01         0.01
  YS02001887YS02001890        0.47      0.47      0.47      0.01         0.01
  YS02001890YS02001895        0.40      0.40      0.49      0.01         0.01
  YS02001895YS02001898        0.39      0.39      0.40      0.01         0.01
  YS02001898YS02001901        0.40      0.40      0.44      0.01         0.01
  YS02001901YS02001904        0.43      0.43      0.44      0.01         0.01
  YS02001904YS02001907        0.43      0.43      0.63      0.01         0.01
  YS02001907YS02006553        0.74      0.74      0.81      0.01         0.01
  YS02001910YS02001907        0.49      0.49      0.62      0.01         0.01
  YS02001915YS02001910        0.41      0.41      0.49      0.01         0.01
  YS02001918YS02001915        0.32      0.32      0.41      0.01         0.01
  YS02001920YS02001918        0.32      0.32      0.33      0.01         0.01
  YS02001923YS02001920        0.27      0.27      0.33      0.01         0.01
  YS02001926YS02001923        0.01      0.01      0.01      0.01         0.01
  YS02001929YS02001926        0.01      0.01      0.01      0.01         0.01
  YS02006553YS02006556        0.56      0.56      0.63      0.01         0.01
  YS02006556YS02006558        0.59      0.59      0.65      0.01         0.01
  YS02006558YS02006561        0.43      0.55      0.43      0.70         0.43
  YS02006561YS02001783        0.35      0.35      0.56      0.01         0.01
  YS02163301YS02001633        6.25      6.25      6.26      0.01         0.01
  YS02163601YS02164001        6.24      6.24      6.26      0.05         0.01
  YS02164001YS02001641        6.24      6.24      6.24      0.60         0.58
  
  
  ***************
  Pumping Summary
  ***************
  
  ---------------------------------------------------------------------------------------------------------
                                                  Min       Avg       Max     Total     Power    % Time Off
                        Percent   Number of      Flow      Flow      Flow    Volume     Usage    Pump Curve
  Pump                 Utilized   Start-Ups       LPS       LPS       LPS  10^6 ltr     Kw-hr    Low   High
  ---------------------------------------------------------------------------------------------------------
  CC-R1                    1.06           1      0.00    683.00    683.00     0.208      3.51    0.0  100.0
  CC-R2                    1.06           1      0.00    683.00    683.00     0.208      3.51    0.0  100.0
  CC-S1                   28.25           5      0.00    200.00    200.00     1.627      6.92    0.0   58.7
  CC-S2                   28.25           5      0.00    200.00    200.00     1.627      6.92    0.0   58.7
  JK-R1                    0.97           2      0.00    347.46   1000.00     0.078      0.47    0.0    0.0
  JK-R2                    0.97           2      0.00    347.46   1000.00     0.078      0.47    0.0    0.0
  JK-S                     0.97           2      0.00    104.30    300.00     0.023      0.44    0.0    0.0
  XR-1                   100.00           1      0.00     95.00     95.00     2.736     68.18    0.0    0.0
  XR-2                   100.00           1      0.00     95.00     95.00     2.736     68.18    0.0    0.0
  XR-3                   100.00           1      0.00     95.00     95.00     2.736     68.18    0.0    0.0
  XR-4                   100.00           1      0.00     95.00     95.00     2.736     68.18    0.0    0.0
  

  Analysis begun on:  Wed Nov  5 16:28:22 2025
  Analysis ended on:  Wed Nov  5 16:28:25 2025
  Total elapsed time: 00:00:03