
  EPA STORM WATER MANAGEMENT MODEL - VERSION 5.2 (Build 5.2.4)
  PYSWMM TOOLKIT API - VERSION v1.0 (2023-11-27)
  ------------------------------------------------------------

  WARNING 04: minimum elevation drop used for Conduit WS02004404WS02004405
  WARNING 03: negative offset ignored for Link YS02001904YS02001907
  
  ****************
  Analysis Options
  ****************
  Flow Units ............... LPS
  Process Models:
    Rainfall/Runoff ........ YES
    RDII ................... NO
    Snowmelt ............... NO
    Groundwater ............ NO
    Flow Routing ........... YES
    Ponding Allowed ........ NO
    Water Quality .......... NO
  Infiltration Method ...... HORTON
  Flow Routing Method ...... DYNWAVE
  Surcharge Method ......... EXTRAN
  Starting Date ............ 08/28/2015 08:00:00
  Ending Date .............. 08/28/2015 16:00:00
  Antecedent Dry Days ...... 8.0
  Report Time Step ......... 00:01:00
  Wet Time Step ............ 00:01:00
  Dry Time Step ............ 00:01:00
  Routing Time Step ........ 30.00 sec
  Variable Time Step ....... YES
  Maximum Trials ........... 8
  Number of Threads ........ 4
  Head Tolerance ........... 0.001500 m
  
  
  **************************        Volume         Depth
  Runoff Quantity Continuity     hectare-m            mm
  **************************     ---------       -------
  Initial LID Storage ......         0.049         1.488
  Total Precipitation ......         1.819        54.840
  Evaporation Loss .........         0.000         0.000
  Infiltration Loss ........         0.076         2.285
  Surface Runoff ...........         1.334        40.228
  Final Storage ............         0.459        13.830
  Continuity Error (%) .....        -0.027
  
  
  **************************        Volume        Volume
  Flow Routing Continuity        hectare-m      10^6 ltr
  **************************     ---------     ---------
  Dry Weather Inflow .......         0.602         6.020
  Wet Weather Inflow .......         1.334        13.344
  Groundwater Inflow .......         0.000         0.000
  RDII Inflow ..............         0.000         0.000
  External Inflow ..........         0.105         1.045
  External Outflow .........         1.543        15.427
  Flooding Loss ............         0.458         4.584
  Evaporation Loss .........         0.000         0.000
  Exfiltration Loss ........         0.000         0.000
  Initial Stored Volume ....         0.303         3.031
  Final Stored Volume ......         0.799         7.991
  Continuity Error (%) .....       -19.459
  
  
  *************************
  Highest Continuity Errors
  *************************
  Node YS02001774 (33.99%)
  Node YS02001583 (-11.37%)
  Node WS02006256 (-6.40%)
  Node YS02001884 (5.24%)
  Node YS02001754 (4.20%)
  
  
  ***************************
  Time-Step Critical Elements
  ***************************
  Link WS02001212WS02001213 (27.04%)
  Link WS02006235WS02006234 (21.03%)
  Link WS02006238WS02006235 (20.57%)
  Link WS02003066WSF200 (10.22%)
  Link YS02006556YS02006558 (4.31%)
  
  
  ********************************
  Highest Flow Instability Indexes
  ********************************
  Link WS02006113WS02006111 (43)
  Link WS02006256WS02006235 (34)
  Link WS02006238WS02006235 (33)
  Link WS02006111WS02006112 (32)
  Link WS02006252WS02006251 (25)
  
  
  *********************************
  Most Frequent Nonconverging Nodes
  *********************************
  Node CC-1 (17.70%)
  Node CC-2 (17.70%)
  Node JK-1 (17.70%)
  Node JK-2 (17.70%)
  Node WSC (17.70%)
  
  
  *************************
  Routing Time Step Summary
  *************************
  Minimum Time Step           :     0.02 sec
  Average Time Step           :     3.64 sec
  Maximum Time Step           :     6.46 sec
  % of Time in Steady State   :     0.00
  Average Iterations per Step :     3.70
  % of Steps Not Converging   :    17.70
  Time Step Frequencies       :
     30.000 - 13.228 sec      :     0.00 %
     13.228 -  5.833 sec      :    27.74 %
      5.833 -  2.572 sec      :    43.08 %
      2.572 -  1.134 sec      :    23.27 %
      1.134 -  0.500 sec      :     5.91 %
  
  
  ***************************
  Subcatchment Runoff Summary
  ***************************
  
  ------------------------------------------------------------------------------------------------------------------------------
                            Total      Total      Total      Total     Imperv       Perv      Total       Total     Peak  Runoff
                           Precip      Runon       Evap      Infil     Runoff     Runoff     Runoff      Runoff   Runoff   Coeff
  Subcatchment                 mm         mm         mm         mm         mm         mm         mm    10^6 ltr      LPS
  ------------------------------------------------------------------------------------------------------------------------------
  sub60                     54.84       0.00       0.00       1.38      36.32       3.70      40.02        0.53   305.98   0.730
  sub61                     54.84       0.00       0.00       2.11      36.29       5.51      41.79        0.77   443.49   0.762
  sub62                     54.84       0.00       0.00       0.94      38.68       2.51      41.19        1.13   610.68   0.751
  sub63                     54.84       0.00       0.00       3.84      31.08       9.18      40.25        0.91   491.71   0.734
  sub64                     54.84       0.00       0.00       1.85      35.38       4.56      39.94        0.96   493.06   0.728
  sub65                     54.84       0.00       0.00       1.70      38.19       4.16      42.35        1.17   575.96   0.772
  sub66                     54.84       0.00       0.00       4.43      30.04       8.18      38.22        1.78   733.19   0.697
  sub67                     54.84       0.00       0.00       0.93      39.66       2.60      42.26        0.79   476.46   0.771
  sub68                     54.84       0.00       0.00       1.62      35.02       4.23      39.25        1.08   604.27   0.716
  sub69                     54.84       0.00       0.00       1.47      36.86       5.05      41.91        1.55   749.13   0.764
  sub70                     54.84       0.00       0.00       4.84      29.52      10.42      39.95        1.15   426.35   0.728
  sub71                     54.84       0.00       0.00       0.86      35.14       2.27      37.41        0.98   502.50   0.682
  sub72                     54.84       0.00       0.00       0.82      37.95       2.11      40.06        0.55   258.27   0.731
  

  ***********************
  LID Performance Summary
  ***********************

  --------------------------------------------------------------------------------------------------------------------
                                         Total      Evap     Infil   Surface    Drain    Initial     Final  Continuity
                                        Inflow      Loss      Loss   Outflow   Outflow   Storage   Storage       Error
  Subcatchment      LID Control             mm        mm        mm        mm        mm        mm        mm           %
  --------------------------------------------------------------------------------------------------------------------
  sub60             GreenRoof            54.84      0.00      0.00      0.00      0.00      7.05     61.92       -0.05
  sub61             GreenRoof            54.84      0.00      0.00      0.00      0.00      7.05     61.92       -0.05
  sub62             GreenRoof            54.84      0.00      0.00      0.00      0.00      7.05     61.92       -0.05
  sub63             GreenRoof            54.84      0.00      0.00      0.00      0.00      7.05     61.92       -0.05
  sub64             GreenRoof            54.84      0.00      0.00      0.00      0.00      7.05     61.92       -0.05
  sub65             GreenRoof            54.84      0.00      0.00      0.00      0.00      7.05     61.92       -0.05
  sub66             GreenRoof            54.84      0.00      0.00      0.00      0.00      7.05     61.92       -0.05
  sub67             GreenRoof            54.84      0.00      0.00      0.00      0.00      7.05     61.92       -0.05
  sub68             GreenRoof            54.84      0.00      0.00      0.00      0.00      7.05     61.92       -0.05
  sub69             GreenRoof            54.84      0.00      0.00      0.00      0.00      7.05     61.92       -0.05
  sub70             GreenRoof            54.84      0.00      0.00      0.00      0.00      7.05     61.92       -0.05
  sub71             GreenRoof            54.84      0.00      0.00      0.00      0.00      7.05     61.92       -0.05
  sub72             GreenRoof            54.84      0.00      0.00      0.00      0.00      7.05     61.92       -0.05
  
  ******************
  Node Depth Summary
  ******************
  
  ---------------------------------------------------------------------------------
                                 Average  Maximum  Maximum  Time of Max    Reported
                                   Depth    Depth      HGL   Occurrence   Max Depth
  Node                 Type       Meters   Meters   Meters  days hr:min      Meters
  ---------------------------------------------------------------------------------
  WS02001211           JUNCTION     0.76     0.78     5.62     0  03:03        0.78
  WS02001212           JUNCTION     0.46     0.49     5.55     0  03:05        0.49
  WS02001213           JUNCTION     0.68     0.73     5.49     0  03:01        0.73
  WS02003059           JUNCTION     0.73     0.78     5.47     0  03:01        0.78
  WS02003060           JUNCTION     0.38     0.47     5.41     0  03:00        0.47
  WS02003066           JUNCTION     0.16     0.27     5.82     0  03:00        0.27
  WS02003067           JUNCTION     0.44     0.65     5.97     0  02:59        0.65
  WS02003069           JUNCTION     0.43     0.54     5.12     0  03:01        0.54
  WS02003072           JUNCTION     0.49     0.60     4.97     0  03:01        0.60
  WS02003073           JUNCTION     0.29     0.37     4.43     0  03:02        0.37
  WS02004138           JUNCTION     0.19     0.20     7.45     0  00:00        0.19
  WS02004139           JUNCTION     0.71     0.73     5.64     0  03:03        0.73
  WS02004401           JUNCTION     0.52     0.75     6.75     0  02:13        0.75
  WS02004402           JUNCTION     0.55     0.78     6.74     0  02:55        0.78
  WS02004403           JUNCTION     0.58     0.80     6.73     0  02:56        0.80
  WS02004404           JUNCTION     0.65     0.88     6.73     0  02:53        0.88
  WS02004405           JUNCTION     0.65     0.88     6.73     0  02:53        0.88
  WS02004406           JUNCTION     0.66     0.88     6.71     0  02:56        0.88
  WS02004407           JUNCTION     0.14     0.26     6.57     0  02:15        0.26
  WS02004409           JUNCTION     0.32     0.58     6.35     0  02:58        0.58
  WS02004410           JUNCTION     0.34     0.59     6.31     0  02:58        0.59
  WS02004411           JUNCTION     0.37     0.61     6.29     0  02:59        0.61
  WS02004412           JUNCTION     0.39     0.62     6.26     0  02:59        0.62
  WS02004413           JUNCTION     0.54     0.79     6.26     0  02:59        0.79
  WS02006109           JUNCTION     0.58     0.84     7.45     0  02:08        0.84
  WS02006110           JUNCTION     0.59     0.82     7.41     0  02:54        0.82
  WS02006111           JUNCTION     0.15     0.25     6.96     0  02:13        0.25
  WS02006112           JUNCTION     0.67     0.93     6.82     0  02:54        0.93
  WS02006113           JUNCTION     0.22     0.39     7.29     0  02:53        0.39
  WS02006115           JUNCTION     0.41     0.65     6.78     0  02:54        0.65
  WS02006116           JUNCTION     0.49     0.73     6.77     0  02:54        0.73
  WS02006228           JUNCTION     0.56     0.85     7.50     0  02:01        0.85
  WS02006229           JUNCTION     0.53     0.83     7.52     0  02:08        0.83
  WS02006230           JUNCTION     0.52     0.86     7.60     0  01:53        0.86
  WS02006231           JUNCTION     0.32     0.60     7.72     0  02:06        0.60
  WS02006232           JUNCTION     0.44     0.75     7.79     0  02:19        0.75
  WS02006234           JUNCTION     0.36     0.71     7.87     0  01:48        0.71
  WS02006235           JUNCTION     0.40     0.77     7.93     0  02:16        0.76
  WS02006238           JUNCTION     0.43     0.81     7.95     0  02:06        0.80
  WS02006239           JUNCTION     0.40     0.81     8.02     0  02:00        0.80
  WS02006240           JUNCTION     0.39     0.79     8.08     0  01:48        0.79
  WS02006242           JUNCTION     0.45     0.91     8.18     0  01:48        0.90
  WS02006243           JUNCTION     0.39     0.84     8.26     0  01:48        0.84
  WS02006245           JUNCTION     0.40     0.86     8.34     0  01:48        0.85
  WS02006247           JUNCTION     0.41     0.98     8.48     0  01:48        0.98
  WS02006248           JUNCTION     0.39     0.86     8.45     0  01:48        0.85
  WS02006249           JUNCTION     0.41     1.01     8.61     0  02:23        1.01
  WS02006251           JUNCTION     0.41     0.91     8.58     0  01:48        0.91
  WS02006252           JUNCTION     0.29     1.50     9.74     0  00:00        0.60
  WS02006256           JUNCTION     0.63     2.35     9.28     0  00:00        2.35
  WSF200               JUNCTION     0.13     0.25     5.48     0  03:00        0.25
  YS02001580           JUNCTION     0.09     1.05     9.59     0  01:47        0.77
  YS02001583           JUNCTION     0.12     1.14     9.64     0  01:47        0.82
  YS02001586           JUNCTION     0.20     1.13     9.30     0  01:46        1.13
  YS02001590           JUNCTION     0.30     1.40     9.26     0  01:47        1.37
  YS02001593           JUNCTION     0.24     1.35     9.21     0  01:47        1.29
  YS02001596           JUNCTION     0.49     1.71     9.12     0  01:47        1.67
  YS02001600           JUNCTION     0.73     1.87     9.00     0  01:47        1.87
  YS02001601           JUNCTION     0.97     2.06     8.90     0  01:46        2.06
  YS02001602           JUNCTION     0.89     1.87     8.77     0  01:47        1.87
  YS02001605           JUNCTION     0.86     1.78     8.68     0  01:48        1.78
  YS02001607           JUNCTION     0.85     1.68     8.53     0  01:48        1.68
  YS02001610           JUNCTION     0.89     1.68     8.48     0  01:47        1.68
  YS02001613           JUNCTION     0.85     1.70     8.54     0  01:48        1.70
  YS02001616           JUNCTION     0.79     1.61     8.52     0  01:48        1.61
  YS02001619           JUNCTION     0.77     1.61     8.54     0  01:48        1.61
  YS02001622           JUNCTION     0.78     1.62     8.52     0  01:48        1.62
  YS02001625           JUNCTION     1.03     1.78     8.38     0  01:47        1.78
  YS02001629           JUNCTION     1.06     1.85     8.40     0  01:47        1.85
  YS02001633           JUNCTION     1.14     2.08     8.53     0  02:01        2.08
  YS02001641           JUNCTION     1.12     1.94     8.38     0  01:51        1.93
  YS02001644           JUNCTION     1.11     1.91     8.34     0  01:52        1.82
  YS02001647           JUNCTION     0.93     1.64     8.25     0  01:52        1.55
  YS02001649           JUNCTION     1.09     1.76     8.15     0  01:52        1.67
  YS02001652           JUNCTION     0.91     1.62     8.22     0  01:59        1.49
  YS02001655           JUNCTION     0.72     1.66     8.51     0  02:05        1.34
  YS02001658           JUNCTION     0.49     1.30     8.45     0  01:52        0.97
  YS02001661           JUNCTION     0.30     0.72     8.13     0  01:52        0.72
  YS02001664           JUNCTION     0.06     0.27     8.19     0  01:51        0.27
  YS02001745           JUNCTION     0.19     0.42     7.94     0  01:51        0.36
  YS02001748           JUNCTION     0.52     0.85     7.93     0  01:52        0.84
  YS02001751           JUNCTION     0.67     1.28     8.16     0  01:53        1.28
  YS02001754           JUNCTION     0.88     1.42     8.02     0  01:53        1.42
  YS02001757           JUNCTION     1.18     1.69     7.95     0  01:53        1.66
  YS02001759           JUNCTION     1.09     1.65     8.01     0  01:52        1.59
  YS02001762           JUNCTION     1.06     1.66     8.06     0  01:52        1.56
  YS02001765           JUNCTION     1.02     1.64     8.09     0  01:52        1.53
  YS02001767           JUNCTION     0.99     1.66     8.15     0  01:52        1.51
  YS02001770           JUNCTION     1.00     1.78     8.27     0  01:50        1.54
  YS02001774           JUNCTION     1.06     1.89     8.31     0  01:50        1.71
  YS02001779           JUNCTION     0.83     1.68     8.37     0  01:50        1.68
  YS02001783           JUNCTION     0.49     1.76     7.90     0  01:49        1.49
  YS02001784           JUNCTION     0.54     2.00     8.07     0  01:49        1.73
  YS02001786           JUNCTION     0.54     2.13     8.16     0  01:49        2.07
  YS02001788           JUNCTION     0.55     2.28     8.26     0  01:49        1.21
  YS02001790           JUNCTION     0.79     1.96     7.60     0  01:49        1.30
  YS02001791           JUNCTION     0.90     1.64     7.11     0  01:49        1.27
  YS02001793           JUNCTION     1.37     1.99     6.83     0  01:49        1.82
  YS02001882           JUNCTION     0.30     1.74     8.46     0  01:49        1.61
  YS02001884           JUNCTION     0.39     1.81     8.43     0  01:49        1.70
  YS02001887           JUNCTION     0.47     1.85     8.39     0  01:49        1.79
  YS02001890           JUNCTION     0.50     1.81     8.32     0  01:49        1.81
  YS02001895           JUNCTION     0.27     1.57     8.32     0  01:49        1.55
  YS02001898           JUNCTION     0.28     1.60     8.33     0  02:01        1.60
  YS02001901           JUNCTION     0.39     1.70     8.31     0  01:49        1.68
  YS02001904           JUNCTION     0.37     1.66     8.29     0  01:49        1.63
  YS02001907           JUNCTION     0.68     1.96     8.25     0  01:49        1.96
  YS02001910           JUNCTION     0.48     2.02     8.53     0  01:50        1.80
  YS02001915           JUNCTION     0.30     1.97     8.69     0  01:50        1.64
  YS02001918           JUNCTION     0.15     1.81     8.88     0  01:50        1.32
  YS02001920           JUNCTION     0.23     2.10     9.11     0  01:50        1.41
  YS02001923           JUNCTION     0.11     2.03     9.29     0  01:50        1.18
  YS02001926           JUNCTION     0.15     1.90     9.35     0  01:50        1.00
  YS02001929           JUNCTION     0.08     1.76     9.46     0  01:50        0.71
  YS02006553           JUNCTION     0.69     1.99     8.28     0  01:49        1.99
  YS02006556           JUNCTION     0.66     1.99     8.31     0  01:49        1.93
  YS02006558           JUNCTION     0.70     2.05     8.31     0  01:49        1.97
  YS02006561           JUNCTION     0.17     1.49     8.15     0  01:49        1.10
  YS02163301           JUNCTION     1.08     2.03     8.55     0  02:06        2.03
  YS02163601           JUNCTION     1.17     2.08     8.48     0  02:01        2.08
  YS02164001           JUNCTION     1.11     2.03     8.49     0  02:01        2.03
  CC-1                 OUTFALL      0.00     0.00     0.00     0  00:00        0.00
  CC-2                 OUTFALL      0.00     0.00     0.00     0  00:00        0.00
  JK-1                 OUTFALL      0.00     0.00     0.00     0  00:00        0.00
  JK-2                 OUTFALL      0.00     0.00     0.00     0  00:00        0.00
  WSC                  OUTFALL      0.29     0.37     1.04     0  03:02        0.37
  CC-storage           STORAGE      1.77     2.30     7.80     0  02:41        2.30
  JK-storage           STORAGE      4.60     5.80     6.60     0  01:48        5.80
  XR-storage           STORAGE      0.29     5.00     3.00     0  00:00        4.91
  
  
  *******************
  Node Inflow Summary
  *******************
  
  -------------------------------------------------------------------------------------------------
                                  Maximum  Maximum                  Lateral       Total        Flow
                                  Lateral    Total  Time of Max      Inflow      Inflow     Balance
                                   Inflow   Inflow   Occurrence      Volume      Volume       Error
  Node                 Type           LPS      LPS  days hr:min    10^6 ltr    10^6 ltr     Percent
  -------------------------------------------------------------------------------------------------
  WS02001211           JUNCTION      7.35   389.14     0  03:38       0.212        11.1       0.348
  WS02001212           JUNCTION      0.00   390.85     0  03:41           0        11.1       0.207
  WS02001213           JUNCTION      0.00   392.61     0  03:40           0        11.1       0.238
  WS02003059           JUNCTION      0.00   395.66     0  03:40           0          11       0.328
  WS02003060           JUNCTION     16.53   816.13     0  03:00       0.476        14.9       0.144
  WS02003066           JUNCTION      0.00   411.94     0  02:59           0        3.43       0.035
  WS02003067           JUNCTION      0.00   411.93     0  02:59           0        3.44       0.117
  WS02003069           JUNCTION      0.32   816.39     0  03:00     0.00922        14.9       0.153
  WS02003072           JUNCTION      0.00   816.36     0  03:01           0        14.9       0.199
  WS02003073           JUNCTION      1.82   818.17     0  03:02      0.0524        14.9       0.214
  WS02004138           JUNCTION      0.00   380.00     0  00:00           0        10.9       0.059
  WS02004139           JUNCTION      0.32   395.52     0  00:00     0.00924        10.9       0.407
  WS02004401           JUNCTION      0.00   412.31     0  02:55           0        3.53       0.281
  WS02004402           JUNCTION      0.00   412.29     0  02:55           0        3.52       0.286
  WS02004403           JUNCTION      0.00   412.15     0  02:55           0        3.51       0.281
  WS02004404           JUNCTION      0.16   412.34     0  02:55     0.00467        3.51       0.242
  WS02004405           JUNCTION      0.04   412.38     0  02:55      0.0011         3.5       0.341
  WS02004406           JUNCTION      0.00   412.40     0  02:55           0        3.49       0.585
  WS02004407           JUNCTION      0.00   412.13     0  02:56           0        3.47       0.026
  WS02004409           JUNCTION      0.00   412.04     0  02:15           0        3.47       0.063
  WS02004410           JUNCTION      0.00   412.03     0  02:58           0        3.46       0.113
  WS02004411           JUNCTION      0.00   412.05     0  02:58           0        3.46       0.148
  WS02004412           JUNCTION      0.00   411.95     0  02:59           0        3.45       0.202
  WS02004413           JUNCTION      0.00   412.05     0  02:59           0        3.45       0.364
  WS02006109           JUNCTION      1.23   412.67     0  02:07      0.0354        3.57       0.115
  WS02006110           JUNCTION      0.00   411.93     0  02:07           0        3.57       0.174
  WS02006111           JUNCTION      0.00   423.76     0  02:09           0        3.56       0.025
  WS02006112           JUNCTION      0.00   414.44     0  02:13           0        3.56       0.490
  WS02006113           JUNCTION      0.00   412.00     0  02:54           0        3.56       0.038
  WS02006115           JUNCTION      0.00   412.73     0  02:54           0        3.54       0.175
  WS02006116           JUNCTION      0.00   412.47     0  02:54           0        3.54       0.128
  WS02006228           JUNCTION      0.00   412.52     0  02:07           0        3.54       0.029
  WS02006229           JUNCTION      0.00   410.99     0  02:08           0        3.54       0.161
  WS02006230           JUNCTION     10.28   410.69     0  01:53       0.296        3.55       0.170
  WS02006231           JUNCTION      0.00   400.49     0  02:13           0        3.25      -0.172
  WS02006232           JUNCTION      0.00   400.48     0  01:53           0        3.26       0.366
  WS02006234           JUNCTION      0.00   401.77     0  02:05           0        3.25      -0.234
  WS02006235           JUNCTION      0.00   402.44     0  01:48           0        3.27       0.314
  WS02006238           JUNCTION      0.00   402.32     0  02:07           0        3.24      -0.350
  WS02006239           JUNCTION      0.00   401.28     0  01:55           0        3.23      -0.251
  WS02006240           JUNCTION      0.00   401.70     0  01:48           0        3.22      -0.057
  WS02006242           JUNCTION      0.00   401.43     0  01:48           0        3.22       0.040
  WS02006243           JUNCTION      0.00   401.90     0  02:04           0        3.22       0.008
  WS02006245           JUNCTION      0.00   403.09     0  01:51           0        3.24       0.483
  WS02006247           JUNCTION      0.00   401.00     0  02:26           0        3.24       0.019
  WS02006248           JUNCTION      0.00   402.93     0  02:23           0        3.24       0.104
  WS02006249           JUNCTION      0.00   471.22     0  04:16           0        3.26       0.401
  WS02006251           JUNCTION      0.08   404.65     0  04:16     0.00222        3.26       0.001
  WS02006252           JUNCTION      0.00   400.00     0  00:00           0        3.25      -0.065
  WS02006256           JUNCTION      0.00   300.00     0  00:00           0      0.0243      -6.018
  WSF200               JUNCTION      0.00   411.94     0  03:00           0        3.43       0.016
  YS02001580           JUNCTION      0.00   128.92     0  01:47           0     0.00504       3.582
  YS02001583           JUNCTION      0.00   209.98     0  01:47           0      0.0153     -10.207
  YS02001586           JUNCTION    426.35   426.54     0  01:53        1.15        1.17       0.130
  YS02001590           JUNCTION      0.00   319.40     0  02:01           0        1.08       0.041
  YS02001593           JUNCTION      0.00   318.95     0  02:01           0        1.08       0.032
  YS02001596           JUNCTION      0.00   318.23     0  02:01           0        1.09       0.222
  YS02001600           JUNCTION      0.00   318.14     0  02:01           0         1.1       0.666
  YS02001601           JUNCTION    749.13  1066.94     0  01:52        1.55        2.65       0.337
  YS02001602           JUNCTION      0.00   549.39     0  01:46           0        1.97       0.476
  YS02001605           JUNCTION      0.00   549.60     0  01:46           0        1.88       0.746
  YS02001607           JUNCTION      0.00   550.25     0  01:46           0        1.87       1.084
  YS02001610           JUNCTION      0.00   540.12     0  01:46           0        1.87       1.168
  YS02001613           JUNCTION      0.00   547.64     0  01:46           0         1.7       1.336
  YS02001616           JUNCTION      0.00   551.98     0  01:46           0        1.71       1.190
  YS02001619           JUNCTION    733.19   961.63     0  01:47        1.78        3.49       0.564
  YS02001622           JUNCTION      0.00   937.03     0  01:47           0        3.49       0.779
  YS02001625           JUNCTION      0.00   935.04     0  01:48           0        3.48       1.291
  YS02001629           JUNCTION      0.00   934.37     0  01:48           0        3.17       0.663
  YS02001633           JUNCTION    576.16  1441.64     0  01:48        1.17        4.31       0.746
  YS02001641           JUNCTION      0.00  1440.09     0  01:48           0        4.25       0.499
  YS02001644           JUNCTION    493.10  1881.85     0  01:48       0.961        5.19       0.505
  YS02001647           JUNCTION      0.00  1882.70     0  01:48           0        5.15       0.549
  YS02001649           JUNCTION      0.00  2166.32     0  01:49           0        6.03       0.648
  YS02001652           JUNCTION      0.00   548.97     0  01:53           0       0.931       2.489
  YS02001655           JUNCTION      0.15   550.40     0  01:53     0.00443       0.944       1.835
  YS02001658           JUNCTION      0.00   708.06     0  01:57           0       0.948       1.208
  YS02001661           JUNCTION      0.00   496.40     0  01:51           0       0.933       0.621
  YS02001664           JUNCTION    491.71   491.71     0  01:51       0.914       0.914      -0.041
  YS02001745           JUNCTION    305.98   305.98     0  01:50       0.526       0.544       0.795
  YS02001748           JUNCTION      0.04   441.75     0  01:51      0.0013       0.561       2.083
  YS02001751           JUNCTION      0.01   411.82     0  01:52    0.000317       0.556       3.783
  YS02001754           JUNCTION      0.26   352.07     0  01:52     0.00749       0.547       4.380
  YS02001757           JUNCTION      0.00  3171.17     0  01:52           0        8.23       1.168
  YS02001759           JUNCTION    443.53  1166.02     0  01:50       0.768        1.78       1.314
  YS02001762           JUNCTION      0.00   710.67     0  01:50           0        1.03       2.082
  YS02001765           JUNCTION      0.00   696.50     0  01:50           0        1.05       2.443
  YS02001767           JUNCTION      0.54   684.32     0  01:50      0.0154        1.09       3.390
  YS02001770           JUNCTION    610.83   670.34     0  01:50        1.13        1.16       2.837
  YS02001774           JUNCTION      0.00   376.88     0  01:49           0      0.0732      51.499
  YS02001779           JUNCTION      0.01   386.13     0  01:49    0.000144      0.0285      97.613
  YS02001783           JUNCTION      0.00  1067.34     0  01:48           0        3.09       0.226
  YS02001784           JUNCTION      1.06  1068.08     0  01:48      0.0305        3.11       0.343
  YS02001786           JUNCTION      0.06  1067.68     0  01:48     0.00162        3.11       0.438
  YS02001788           JUNCTION      0.07   971.30     0  01:52     0.00204        3.09       0.427
  YS02001790           JUNCTION      0.15   971.96     0  01:51     0.00446        3.09       0.539
  YS02001791           JUNCTION      0.00   971.86     0  01:51           0        3.07       0.469
  YS02001793           JUNCTION      0.00   971.96     0  01:50           0        3.05       0.528
  YS02001882           JUNCTION      0.00    54.58     0  01:48           0      0.0126       6.149
  YS02001884           JUNCTION      0.00   110.37     0  01:48           0      0.0486       5.532
  YS02001887           JUNCTION    476.91   479.54     0  01:49       0.799       0.833       0.534
  YS02001890           JUNCTION      0.00   484.51     0  01:48           0       0.791       0.661
  YS02001895           JUNCTION      0.00   489.99     0  01:48           0       0.785       0.212
  YS02001898           JUNCTION      0.00   496.90     0  01:48           0       0.784       0.023
  YS02001901           JUNCTION      0.00   507.97     0  01:48           0       0.786       0.423
  YS02001904           JUNCTION      0.00   511.91     0  01:48           0       0.791       0.359
  YS02001907           JUNCTION      0.00  1425.08     0  01:51           0         2.4       0.751
  YS02001910           JUNCTION      0.00   961.26     0  01:51           0        1.61       0.460
  YS02001915           JUNCTION    502.51   960.21     0  01:51       0.979        1.66       0.085
  YS02001918           JUNCTION      0.00   561.70     0  01:49           0       0.715      -0.023
  YS02001920           JUNCTION      2.87   533.32     0  01:49      0.0827       0.694       0.117
  YS02001923           JUNCTION      0.04   604.28     0  01:50     0.00109       0.596      -0.255
  YS02001926           JUNCTION      0.05   928.42     0  01:49      0.0015       0.573      -0.144
  YS02001929           JUNCTION    258.27   752.70     0  01:50       0.551       0.556      -0.103
  YS02006553           JUNCTION      0.00   674.94     0  02:06           0        2.04       0.590
  YS02006556           JUNCTION      0.00   671.74     0  02:06           0        2.04       0.411
  YS02006558           JUNCTION    605.15  1127.63     0  01:48        1.11        3.12       0.116
  YS02006561           JUNCTION      0.00  1131.68     0  01:48           0        3.09      -0.007
  YS02163301           JUNCTION      0.00   932.96     0  01:48           0        3.16       0.758
  YS02163601           JUNCTION      0.11  1442.33     0  01:48     0.00317        4.28       0.696
  YS02164001           JUNCTION      0.00  1442.12     0  01:48           0        4.26       0.470
  CC-1                 OUTFALL       0.00   683.00     0  00:00           0       0.208       0.000
  CC-2                 OUTFALL       0.00   683.00     0  00:00           0       0.208       0.000
  JK-1                 OUTFALL       0.00  1000.00     0  00:00           0      0.0791       0.000
  JK-2                 OUTFALL       0.00  1000.00     0  00:00           0      0.0791       0.000
  WSC                  OUTFALL       0.00   818.16     0  03:02           0        14.9       0.000
  CC-storage           STORAGE       0.00  3171.85     0  01:52           0        10.2       0.397
  JK-storage           STORAGE       0.00   973.03     0  01:51           0        3.19       0.505
  XR-storage           STORAGE     200.00   200.00     0  00:00        5.76        6.36     -41.886
  
  
  **********************
  Node Surcharge Summary
  **********************
  
  Surcharging occurs when water rises above the top of the highest conduit.
  ---------------------------------------------------------------------
                                               Max. Height   Min. Depth
                                   Hours       Above Crown    Below Rim
  Node                 Type      Surcharged         Meters       Meters
  ---------------------------------------------------------------------
  WS02006109           JUNCTION        1.77          0.017        1.803
  WS02006228           JUNCTION        1.76          0.020        2.180
  WS02006229           JUNCTION        1.78          0.029        2.421
  WS02006232           JUNCTION        1.83          0.051        1.429
  WS02006235           JUNCTION        1.78          0.057        1.233
  WS02006238           JUNCTION        1.80          0.088        1.342
  WS02006239           JUNCTION        1.78          0.067        1.223
  WS02006240           JUNCTION        1.78          0.081        1.309
  WS02006242           JUNCTION        1.86          0.178        0.642
  WS02006243           JUNCTION        1.80          0.133        0.637
  WS02006245           JUNCTION        1.80          0.150        0.700
  WS02006247           JUNCTION        1.82          0.273        0.487
  WS02006248           JUNCTION        1.79          0.142        0.238
  WS02006249           JUNCTION        1.81          0.307        0.083
  WS02006252           JUNCTION        2.26          1.100        0.000
  WS02006256           JUNCTION        3.68          2.050        0.000
  YS02001580           JUNCTION        0.40          0.450        0.000
  YS02001583           JUNCTION        0.41          0.500        0.000
  YS02001586           JUNCTION        0.62          0.510        0.000
  YS02001590           JUNCTION        0.73          0.750        0.000
  YS02001593           JUNCTION        0.74          0.728        0.112
  YS02001596           JUNCTION        1.01          0.975        0.095
  YS02001600           JUNCTION        1.52          1.190        0.000
  YS02001601           JUNCTION        6.40          1.440        0.000
  YS02001602           JUNCTION        6.37          1.270        0.000
  YS02001605           JUNCTION        6.35          1.180        0.000
  YS02001607           JUNCTION        1.28          0.680        0.000
  YS02001610           JUNCTION        1.42          0.680        0.000
  YS02001613           JUNCTION        1.28          0.700        0.000
  YS02001616           JUNCTION        1.13          0.610        0.000
  YS02001619           JUNCTION        1.07          0.610        0.000
  YS02001622           JUNCTION        1.15          0.620        0.000
  YS02001625           JUNCTION        6.24          0.780        0.000
  YS02001629           JUNCTION        1.02          0.470        0.000
  YS02001633           JUNCTION        6.25          1.060        0.000
  YS02001641           JUNCTION        6.23          0.941        0.159
  YS02001644           JUNCTION        6.22          0.906        0.014
  YS02001647           JUNCTION        6.18          0.639        0.261
  YS02001649           JUNCTION        6.19          0.757        0.293
  YS02001652           JUNCTION        6.17          0.594        0.536
  YS02001655           JUNCTION        0.69          0.657        0.543
  YS02001658           JUNCTION        0.01          0.304        0.996
  YS02001751           JUNCTION        0.03          0.277        0.923
  YS02001754           JUNCTION        6.16          0.367        0.783
  YS02001757           JUNCTION        6.18          0.688        0.522
  YS02001759           JUNCTION        6.17          0.647        0.563
  YS02001762           JUNCTION        6.17          0.656        0.494
  YS02001765           JUNCTION        6.17          0.645        0.455
  YS02001767           JUNCTION        6.17          0.657        0.373
  YS02001770           JUNCTION        6.17          0.749        0.171
  YS02001774           JUNCTION        6.17          0.891        0.159
  YS02001779           JUNCTION        5.97          0.680        0.000
  YS02001783           JUNCTION        0.53          0.959        0.641
  YS02001784           JUNCTION        0.53          1.200        0.290
  YS02001786           JUNCTION        0.52          1.332        0.098
  YS02001788           JUNCTION        0.52          1.480        0.000
  YS02001790           JUNCTION        6.19          1.157        0.000
  YS02001791           JUNCTION        6.19          0.842        1.078
  YS02001793           JUNCTION        6.20          0.994        1.606
  YS02001882           JUNCTION        0.38          0.740        0.090
  YS02001884           JUNCTION        0.39          0.750        0.120
  YS02001887           JUNCTION        0.42          0.800        0.150
  YS02001890           JUNCTION        0.43          0.760        0.000
  YS02001895           JUNCTION        0.37          0.573        0.177
  YS02001898           JUNCTION        0.36          0.565        0.175
  YS02001901           JUNCTION        0.41          0.702        0.168
  YS02001904           JUNCTION        0.40          0.657        0.193
  YS02001907           JUNCTION        0.60          0.950        0.000
  YS02001910           JUNCTION        0.46          1.022        0.078
  YS02001915           JUNCTION        0.37          0.974        0.026
  YS02001918           JUNCTION        0.28          0.810        0.000
  YS02001920           JUNCTION        0.30          1.105        0.035
  YS02001923           JUNCTION        0.01          0.820        0.000
  YS02001926           JUNCTION        0.01          0.900        0.000
  YS02001929           JUNCTION        0.01          0.763        0.017
  YS02006553           JUNCTION        0.61          0.993        0.197
  YS02006556           JUNCTION        0.53          0.955        0.395
  YS02006558           JUNCTION        0.52          0.947        0.453
  YS02006561           JUNCTION        0.32          0.686        0.464
  YS02163301           JUNCTION        6.24          1.030        0.000
  YS02163601           JUNCTION        6.25          1.080        0.000
  YS02164001           JUNCTION        6.23          1.028        0.072
  
  
  *********************
  Node Flooding Summary
  *********************
  
  Flooding refers to all water that overflows a node, whether it ponds or not.
  --------------------------------------------------------------------------
                                                             Total   Maximum
                                 Maximum   Time of Max       Flood    Ponded
                        Hours       Rate    Occurrence      Volume     Depth
  Node                 Flooded       LPS   days hr:min    10^6 ltr    Meters
  --------------------------------------------------------------------------
  WS02006252              0.01    245.63      0  00:00       0.000     0.000
  WS02006256              0.02    293.19      0  00:00       0.005     0.000
  YS02001580              0.01     79.00      0  01:47       0.000     0.000
  YS02001583              0.01    113.67      0  01:47       0.000     0.000
  YS02001586              0.29    132.08      0  01:47       0.070     0.000
  YS02001590              0.01     19.24      0  01:47       0.000     0.000
  YS02001600              0.01      5.06      0  01:47       0.000     0.000
  YS02001601              0.54    669.10      0  01:52       0.672     0.000
  YS02001602              0.49     62.39      0  02:06       0.084     0.000
  YS02001605              0.01      0.51      0  02:08       0.000     0.000
  YS02001607              0.01      0.87      0  01:48       0.000     0.000
  YS02001610              0.34    242.46      0  01:54       0.174     0.000
  YS02001613              0.01      1.53      0  02:06       0.000     0.000
  YS02001616              0.01      4.00      0  02:08       0.000     0.000
  YS02001619              0.01      4.45      0  01:48       0.000     0.000
  YS02001622              0.01      1.16      0  02:06       0.000     0.000
  YS02001625              0.31    581.66      0  01:53       0.276     0.000
  YS02001629              0.02    202.06      0  01:47       0.002     0.000
  YS02001633              0.01      2.52      0  02:06       0.000     0.000
  YS02001779              0.01    303.14      0  01:50       0.002     0.000
  YS02001788              0.01    205.61      0  01:49       0.000     0.000
  YS02001790              0.01     37.86      0  01:49       0.000     0.000
  YS02001890              0.01     43.69      0  01:49       0.001     0.000
  YS02001907              0.22   1059.64      0  01:51       0.351     0.000
  YS02001918              0.01    247.28      0  01:50       0.003     0.000
  YS02001923              0.01    500.25      0  01:50       0.003     0.000
  YS02001926              0.01     39.55      0  01:50       0.000     0.000
  YS02163301              0.01      3.52      0  02:06       0.000     0.000
  YS02163601              0.01      1.61      0  02:06       0.000     0.000
  CC-storage              0.37    330.23      0  02:41       0.239     0.000
  JK-storage              6.18    972.06      0  01:50       2.700     0.000
  
  
  **********************
  Storage Volume Summary
  **********************
  
  ------------------------------------------------------------------------------------------------
                         Average    Avg   Evap  Exfil     Maximum    Max    Time of Max    Maximum
                          Volume   Pcnt   Pcnt   Pcnt      Volume   Pcnt     Occurrence    Outflow
  Storage Unit           1000 m³   Full   Loss   Loss     1000 m³   Full    days hr:min        LPS
  ------------------------------------------------------------------------------------------------
  CC-storage               4.935   77.0    0.0    0.0       6.410  100.0       0  02:41    1783.53
  JK-storage               0.231   79.3    0.0    0.0       0.291  100.0       0  01:48    2300.00
  XR-storage               0.035    2.4    0.0    0.0       0.600   41.7       0  00:00     380.00
  
  
  ***********************
  Outfall Loading Summary
  ***********************
  
  -----------------------------------------------------------
                         Flow       Avg       Max       Total
                         Freq      Flow      Flow      Volume
  Outfall Node           Pcnt       LPS       LPS    10^6 ltr
  -----------------------------------------------------------
  CC-1                   1.29    683.00    683.00       0.208
  CC-2                   1.29    683.00    683.00       0.208
  JK-1                   1.20    347.46   1000.00       0.079
  JK-2                   1.20    347.46   1000.00       0.079
  WSC                   99.92    564.83    818.16      14.852
  -----------------------------------------------------------
  System                20.98   2625.75   3366.35      15.427
  
  
  ********************
  Link Flow Summary
  ********************
  
  -----------------------------------------------------------------------------
                                 Maximum  Time of Max   Maximum    Max/    Max/
                                  |Flow|   Occurrence   |Veloc|    Full    Full
  Link                 Type          LPS  days hr:min     m/sec    Flow   Depth
  -----------------------------------------------------------------------------
  1                    CONDUIT    818.16     0  03:02      3.15    0.28    0.37
  WS02001211WS02001212 CONDUIT    390.85     0  03:41      0.78    0.30    0.64
  WS02001212WS02001213 CONDUIT    392.61     0  03:40      1.32    0.61    0.45
  WS02001213WS02003059 CONDUIT    395.66     0  03:40      0.85    0.65    0.75
  WS02003059WS02003060 CONDUIT    399.93     0  03:40      0.95    0.26    0.63
  WS02003060WS02003069 CONDUIT    816.07     0  03:00      1.80    0.32    0.42
  WS02003066WSF200     CONDUIT    411.94     0  03:00      2.69    0.07    0.19
  WS02003067WS02003066 CONDUIT    411.94     0  02:59      1.04    0.13    0.38
  WS02003069WS02003072 CONDUIT    816.36     0  03:01      1.55    0.39    0.47
  WS02003072WS02003073 CONDUIT    816.35     0  03:02      1.64    1.76    0.45
  WS02004138WS02004139 CONDUIT    395.20     0  00:00      3.65    0.08    0.43
  WS02004139WS02001211 CONDUIT    381.79     0  03:38      0.91    0.48    0.59
  WS02004401WS02004402 CONDUIT    412.29     0  02:55      0.99    0.49    0.77
  WS02004402WS02004403 CONDUIT    412.15     0  02:55      0.99    0.59    0.79
  WS02004403WS02004404 CONDUIT    412.18     0  02:55      0.93    0.30    0.84
  WS02004404WS02004405 CONDUIT    412.35     0  02:55      1.10    4.04    0.88
  WS02004405WS02004406 CONDUIT    412.40     0  02:55      1.03    0.81    0.88
  WS02004406WS02004407 CONDUIT    412.13     0  02:56      0.89    0.18    0.57
  WS02004407WS02004409 CONDUIT    412.04     0  02:15      1.42    0.15    0.42
  WS02004409WS02004410 CONDUIT    412.03     0  02:58      0.92    0.53    0.58
  WS02004410WS02004411 CONDUIT    412.05     0  02:58      0.85    0.56    0.60
  WS02004411WS02004412 CONDUIT    411.95     0  02:59      0.81    0.59    0.61
  WS02004412WS02004413 CONDUIT    412.05     0  02:59      0.70    0.28    0.70
  WS02004413WS02003067 CONDUIT    411.93     0  02:59      0.96    0.18    0.54
  WS02006109WS02006110 CONDUIT    411.93     0  02:07      0.84    0.79    0.94
  WS02006110WS02006113 CONDUIT    412.00     0  02:54      1.03    0.37    0.75
  WS02006111WS02006112 CONDUIT    414.44     0  02:13      1.83    0.20    0.65
  WS02006112WS02006115 CONDUIT    412.73     0  02:54      0.71    0.24    0.78
  WS02006113WS02006111 CONDUIT    423.76     0  02:09      2.25    0.51    0.40
  WS02006115WS02006116 CONDUIT    412.47     0  02:54      0.98    0.53    0.66
  WS02006116WS02004401 CONDUIT    412.31     0  02:55      1.00    0.57    0.74
  WS02006228WS02006109 CONDUIT    411.44     0  02:07      1.06    1.80    1.00
  WS02006229WS02006228 CONDUIT    412.52     0  02:07      1.13    1.37    1.00
  WS02006230WS02006229 CONDUIT    410.99     0  02:08      1.22    9.15    1.00
  WS02006231WS02006230 CONDUIT    400.41     0  01:53      1.37    6.07    0.77
  WS02006232WS02006231 CONDUIT    400.49     0  02:13      1.08    0.84    0.92
  WS02006234WS02006232 CONDUIT    400.48     0  01:53      1.40    0.81    1.00
  WS02006235WS02006234 CONDUIT    401.77     0  02:05      1.29    4.24    0.99
  WS02006238WS02006235 CONDUIT    402.43     0  01:48      1.52    0.90    1.00
  WS02006239WS02006238 CONDUIT    402.32     0  02:07      1.22    1.29    1.00
  WS02006240WS02006239 CONDUIT    401.28     0  01:55      1.30    1.26    1.00
  WS02006242WS02006240 CONDUIT    401.70     0  01:48      1.17    1.60    1.00
  WS02006243WS02006242 CONDUIT    401.43     0  01:48      1.43    0.86    1.00
  WS02006245WS02006243 CONDUIT    401.90     0  02:04      1.45    1.19    1.00
  WS02006247WS02006245 CONDUIT    403.09     0  01:51      1.43    3.20    1.00
  WS02006248WS02006247 CONDUIT    401.00     0  02:26      1.44    0.87    1.00
  WS02006249WS02006248 CONDUIT    402.93     0  02:23      1.41    2.21    1.00
  WS02006251WS02006249 CONDUIT    471.22     0  04:16      1.99    1.36    1.00
  WS02006252WS02006251 CONDUIT    404.58     0  04:16     24.55    1.49    1.00
  WS02006256WS02006235 CONDUIT    288.91     0  00:00      4.23    3.06    1.00
  WSF200WS02003060     CONDUIT    411.94     0  03:00      1.43    0.09    0.30
  YS02001580YS02001583 CONDUIT    128.92     0  01:47      0.79    0.50    1.00
  YS02001583YS02001586 CONDUIT    189.30     0  01:47      0.82    0.29    1.00
  YS02001586YS02001590 CONDUIT    319.40     0  02:01      1.28    0.56    1.00
  YS02001590YS02001593 CONDUIT    318.95     0  02:01      1.13    2.00    1.00
  YS02001593YS02001596 CONDUIT    318.23     0  02:01      1.62    0.50    1.00
  YS02001596YS02001600 CONDUIT    318.14     0  02:01      1.13    0.62    1.00
  YS02001600YS02001601 CONDUIT    318.57     0  02:01      1.13    0.55    1.00
  YS02001601YS02001602 CONDUIT    549.39     0  01:46      1.94    1.98    1.00
  YS02001602YS02001605 CONDUIT    549.60     0  01:46      1.94   11.63    1.00
  YS02001605YS02001607 CONDUIT    550.25     0  01:46      1.95    3.02    1.00
  YS02001607YS02001610 CONDUIT    540.12     0  01:46      0.69    0.51    1.00
  YS02001610YS02001613 CONDUIT    547.64     0  01:46      0.70    0.63    1.00
  YS02001613YS02001616 CONDUIT    551.98     0  01:46      0.70    0.47    1.00
  YS02001616YS02001619 CONDUIT    523.83     0  01:47      0.67    0.91    1.00
  YS02001619YS02001622 CONDUIT    937.03     0  01:47      1.22    1.38    1.00
  YS02001622YS02001625 CONDUIT    935.04     0  01:48      1.19    0.50    1.00
  YS02001625YS02001629 CONDUIT    934.37     0  01:48      1.19    0.44    1.00
  YS02001629YS02163301 CONDUIT    932.96     0  01:48      1.19    1.15    1.00
  YS02001633YS02163601 CONDUIT   1442.22     0  01:48      1.84    1.51    1.00
  YS02001641YS02001644 CONDUIT   1441.08     0  01:48      1.83    4.66    1.00
  YS02001644YS02001647 CONDUIT   1882.70     0  01:48      2.42    1.11    1.00
  YS02001647YS02001649 CONDUIT   1866.95     0  01:49      2.42    0.99    1.00
  YS02001649YS02001757 CONDUIT   2151.04     0  01:49      2.74    1.31    1.00
  YS02001652YS02001649 CONDUIT    547.05     0  01:53      0.84    0.27    1.00
  YS02001655YS02001652 CONDUIT    548.97     0  01:53      1.39    0.27    1.00
  YS02001658YS02001655 CONDUIT    550.24     0  01:53      1.99    0.23    1.00
  YS02001661YS02001658 CONDUIT    708.06     0  01:57      2.39    0.28    0.79
  YS02001664YS02001661 CONDUIT    496.40     0  01:51      2.29    0.16    0.49
  YS02001745YS02001748 CONDUIT    441.70     0  01:51      2.21    0.17    0.55
  YS02001748YS02001751 CONDUIT    411.81     0  01:52      1.78    0.21    0.93
  YS02001751YS02001754 CONDUIT    351.81     0  01:52      1.48    0.17    1.00
  YS02001754YS02001757 CONDUIT    350.65     0  01:52      0.53    0.14    1.00
  YS02001757CaochengTiaoxuchi CONDUIT   3171.85     0  01:52      4.04    1.37    1.00
  YS02001759YS02001757 CONDUIT   1173.48     0  01:50      1.49    0.83    1.00
  YS02001762YS02001759 CONDUIT    723.88     0  01:50      0.92    0.83    1.00
  YS02001765YS02001762 CONDUIT    710.67     0  01:50      0.90    0.67    1.00
  YS02001767YS02001765 CONDUIT    696.50     0  01:50      0.89    0.88    1.00
  YS02001770YS02001767 CONDUIT    683.79     0  01:50      0.87    2.71    1.00
  YS02001774YS02001770 CONDUIT    376.88     0  01:49      0.48    0.24    1.00
  YS02001779YS02001774 CONDUIT    386.13     0  01:49      0.49    0.19    1.00
  YS02001783YS02001784 CONDUIT   1067.02     0  01:48      2.12    1.47    1.00
  YS02001784YS02001785 CONDUIT   1067.62     0  01:48      2.13    2.48    1.00
  YS02001786YS02001788 CONDUIT    971.23     0  01:52      2.28    1.87    1.00
  YS02001788YS02001790 CONDUIT    971.81     0  01:51      2.36    0.72    1.00
  YS02001790YS02001791 CONDUIT    971.86     0  01:51      2.88    1.06    1.00
  YS02001791YS02001793 CONDUIT    971.96     0  01:50      5.52    0.42    1.00
  YS02001793JiankangQianchi CONDUIT    973.03     0  01:51      1.54    0.08    1.00
  YS02001882YS02001884 CONDUIT     54.58     0  01:48      0.14    0.06    1.00
  YS02001884YS02001887 CONDUIT    110.37     0  01:48      0.14    0.15    1.00
  YS02001887YS02001890 CONDUIT    484.51     0  01:48      0.62    0.83    1.00
  YS02001890YS02001895 CONDUIT    489.99     0  01:48      0.62    0.23    1.00
  YS02001895YS02001898 CONDUIT    496.90     0  01:48      0.63    0.86    1.00
  YS02001898YS02001901 CONDUIT    507.97     0  01:48      0.65    0.33    1.00
  YS02001901YS02001904 CONDUIT    511.91     0  01:48      0.65    0.79    1.00
  YS02001904YS02001907 CONDUIT    518.45     0  01:48      0.66    0.18    1.00
  YS02001907YS02006553 CONDUIT    674.94     0  02:06      0.75    0.79    1.00
  YS02001910YS02001907 CONDUIT    962.72     0  01:51      1.23    0.54    1.00
  YS02001915YS02001910 CONDUIT    961.26     0  01:51      1.22    0.48    1.00
  YS02001918YS02001915 CONDUIT    561.70     0  01:49      0.72    0.31    1.00
  YS02001920YS02001918 CONDUIT    530.45     0  01:49      0.68    0.51    1.00
  YS02001923YS02001920 CONDUIT    529.53     0  01:49      0.74    0.24    1.00
  YS02001926YS02001923 CONDUIT    714.86     0  01:49      1.16    1.02    1.00
  YS02001929YS02001926 CONDUIT    507.75     0  01:50      1.18    0.24    1.00
  YS02006553YS02006556 CONDUIT    671.74     0  02:06      0.86    0.57    1.00
  YS02006556YS02006558 CONDUIT    671.29     0  02:04      0.85    0.53    1.00
  YS02006558YS02006561 CONDUIT   1131.68     0  01:48      4.01    2.50    1.00
  YS02006561YS02001783 CONDUIT   1067.34     0  01:48      2.23    0.55    1.00
  YS02163301YS02001633 CONDUIT    933.17     0  01:48      1.19    0.88    1.00
  YS02163601YS02164001 CONDUIT   1442.12     0  01:48      1.84    1.28    1.00
  YS02164001YS02001641 CONDUIT   1440.09     0  01:48      1.83    1.97    1.00
  CC-R1                PUMP       683.00     0  00:00              1.00
  CC-R2                PUMP       683.00     0  00:00              1.00
  CC-S1                PUMP       200.00     0  00:00              1.00
  CC-S2                PUMP       200.00     0  00:00              1.00
  JK-R1                PUMP      1000.00     0  00:00              1.00
  JK-R2                PUMP      1000.00     0  00:00              1.00
  JK-S                 PUMP       300.00     0  00:00              1.00
  XR-1                 PUMP        95.00     0  00:00              1.00
  XR-2                 PUMP        95.00     0  00:00              1.00
  XR-3                 PUMP        95.00     0  00:00              1.00
  XR-4                 PUMP        95.00     0  00:00              1.00
  
  
  ***************************
  Flow Classification Summary
  ***************************
  
  -------------------------------------------------------------------------------------
                      Adjusted    ---------- Fraction of Time in Flow Class ---------- 
                       /Actual         Up    Down  Sub   Sup   Up    Down  Norm  Inlet 
  Conduit               Length    Dry  Dry   Dry   Crit  Crit  Crit  Crit  Ltd   Ctrl  
  -------------------------------------------------------------------------------------
  1                       1.00   0.00  0.00  0.00  0.00  1.00  0.00  0.00  0.24  0.00
  WS02001211WS02001212    1.00   0.00  0.00  0.00  1.00  0.00  0.00  0.00  0.00  0.00
  WS02001212WS02001213    1.00   0.00  0.00  0.00  0.47  0.00  0.53  0.00  0.00  0.00
  WS02001213WS02003059    1.00   0.00  0.00  0.00  0.99  0.00  0.00  0.00  0.00  0.00
  WS02003059WS02003060    1.00   0.00  0.00  0.00  1.00  0.00  0.00  0.00  0.00  0.00
  WS02003060WS02003069    1.00   0.00  0.00  0.00  0.99  0.01  0.00  0.00  0.00  0.00
  WS02003066WSF200        1.00   0.02  0.10  0.00  0.00  0.88  0.00  0.00  0.86  0.00
  WS02003067WS02003066    1.00   0.10  0.02  0.00  0.89  0.00  0.00  0.00  0.00  0.00
  WS02003069WS02003072    1.00   0.00  0.00  0.00  0.99  0.01  0.00  0.00  0.00  0.00
  WS02003072WS02003073    1.00   0.00  0.00  0.00  0.00  0.00  0.00  1.00  0.00  0.00
  WS02004138WS02004139    1.00   0.00  0.00  0.00  0.99  0.01  0.00  0.00  1.00  0.00
  WS02004139WS02001211    1.00   0.00  0.00  0.00  1.00  0.00  0.00  0.00  0.00  0.00
  WS02004401WS02004402    1.00   0.02  0.00  0.00  0.98  0.00  0.00  0.00  0.00  0.00
  WS02004402WS02004403    1.00   0.02  0.00  0.00  0.98  0.00  0.00  0.00  0.00  0.00
  WS02004403WS02004404    1.00   0.00  0.03  0.00  0.97  0.00  0.00  0.00  0.00  0.00
  WS02004404WS02004405    1.00   0.00  0.00  0.00  1.00  0.00  0.00  0.00  0.01  0.00
  WS02004405WS02004406    1.00   0.00  0.00  0.00  1.00  0.00  0.00  0.00  0.00  0.00
  WS02004406WS02004407    1.00   0.00  0.05  0.00  0.95  0.00  0.00  0.00  0.00  0.00
  WS02004407WS02004409    1.00   0.05  0.00  0.00  0.94  0.01  0.00  0.00  0.94  0.00
  WS02004409WS02004410    1.00   0.05  0.00  0.00  0.95  0.00  0.00  0.00  0.02  0.00
  WS02004410WS02004411    1.00   0.05  0.00  0.00  0.95  0.00  0.00  0.00  0.00  0.00
  WS02004411WS02004412    1.00   0.05  0.00  0.00  0.95  0.00  0.00  0.00  0.00  0.00
  WS02004412WS02004413    1.00   0.05  0.00  0.00  0.94  0.00  0.00  0.00  0.01  0.00
  WS02004413WS02003067    1.00   0.06  0.04  0.00  0.00  0.00  0.90  0.00  0.00  0.00
  WS02006109WS02006110    1.00   0.00  0.01  0.00  0.98  0.00  0.01  0.00  0.00  0.00
  WS02006110WS02006113    1.00   0.01  0.01  0.00  0.98  0.00  0.00  0.00  0.00  0.00
  WS02006111WS02006112    1.00   0.02  0.00  0.00  0.98  0.00  0.00  0.00  0.98  0.00
  WS02006112WS02006115    1.00   0.02  0.00  0.00  0.97  0.00  0.00  0.00  0.00  0.00
  WS02006113WS02006111    1.00   0.02  0.00  0.00  0.00  0.98  0.00  0.00  0.13  0.00
  WS02006115WS02006116    1.00   0.02  0.00  0.00  0.97  0.00  0.00  0.01  0.00  0.00
  WS02006116WS02004401    1.00   0.02  0.00  0.00  0.98  0.00  0.00  0.00  0.00  0.00
  WS02006228WS02006109    1.00   0.00  0.00  0.00  1.00  0.00  0.00  0.00  0.00  0.00
  WS02006229WS02006228    1.00   0.00  0.00  0.00  0.99  0.00  0.00  0.01  0.00  0.00
  WS02006230WS02006229    1.00   0.00  0.00  0.00  0.99  0.00  0.00  0.01  0.00  0.00
  WS02006231WS02006230    1.00   0.00  0.00  0.00  0.24  0.00  0.76  0.00  0.00  0.00
  WS02006232WS02006231    1.00   0.00  0.00  0.00  0.99  0.00  0.01  0.00  0.00  0.00
  WS02006234WS02006232    1.00   0.00  0.00  0.00  1.00  0.00  0.00  0.00  0.42  0.00
  WS02006235WS02006234    1.00   0.00  0.00  0.00  0.54  0.00  0.46  0.00  0.00  0.00
  WS02006238WS02006235    1.00   0.00  0.00  0.00  1.00  0.00  0.00  0.00  0.00  0.00
  WS02006239WS02006238    1.00   0.00  0.00  0.00  1.00  0.00  0.00  0.00  0.54  0.00
  WS02006240WS02006239    1.00   0.00  0.00  0.00  0.41  0.00  0.00  0.59  0.02  0.00
  WS02006242WS02006240    1.00   0.00  0.00  0.00  0.99  0.00  0.01  0.00  0.00  0.00
  WS02006243WS02006242    1.00   0.00  0.00  0.00  0.99  0.00  0.00  0.01  0.66  0.00
  WS02006245WS02006243    1.00   0.00  0.00  0.00  0.49  0.00  0.00  0.51  0.00  0.00
  WS02006247WS02006245    1.00   0.00  0.00  0.00  0.99  0.00  0.00  0.01  0.00  0.00
  WS02006248WS02006247    1.00   0.00  0.00  0.00  0.99  0.00  0.00  0.01  0.19  0.00
  WS02006249WS02006248    1.00   0.00  0.00  0.00  0.33  0.00  0.67  0.00  0.00  0.00
  WS02006251WS02006249    1.00   0.00  0.00  0.00  1.00  0.00  0.00  0.00  0.68  0.00
  WS02006252WS02006251    1.00   0.00  0.72  0.00  0.00  0.00  0.28  0.00  0.00  0.00
  WS02006256WS02006235    1.00   0.00  0.00  0.00  1.00  0.00  0.00  0.00  0.00  0.00
  WSF200WS02003060        1.00   0.00  0.02  0.00  0.98  0.00  0.00  0.00  0.66  0.00
  YS02001580YS02001583    1.00   0.22  0.60  0.00  0.18  0.00  0.00  0.00  0.69  0.00
  YS02001583YS02001586    1.00   0.49  0.27  0.00  0.24  0.00  0.00  0.00  0.69  0.00
  YS02001586YS02001590    1.00   0.13  0.00  0.00  0.38  0.04  0.00  0.45  0.32  0.00
  YS02001590YS02001593    1.00   0.13  0.01  0.00  0.14  0.00  0.73  0.00  0.00  0.00
  YS02001593YS02001596    1.00   0.13  0.00  0.00  0.79  0.00  0.00  0.08  0.64  0.00
  YS02001596YS02001600    1.00   0.14  0.00  0.00  0.81  0.00  0.00  0.05  0.01  0.00
  YS02001600YS02001601    1.00   0.13  0.01  0.00  0.86  0.00  0.00  0.00  0.04  0.00
  YS02001601YS02001602    1.00   0.13  0.01  0.00  0.87  0.00  0.00  0.00  0.00  0.00
  YS02001602YS02001605    1.00   0.13  0.00  0.00  0.86  0.00  0.00  0.00  0.00  0.00
  YS02001605YS02001607    1.00   0.14  0.00  0.00  0.86  0.00  0.00  0.00  0.00  0.00
  YS02001607YS02001610    1.00   0.13  0.01  0.00  0.86  0.00  0.00  0.00  0.01  0.00
  YS02001610YS02001613    1.00   0.13  0.00  0.00  0.87  0.00  0.00  0.00  0.00  0.00
  YS02001613YS02001616    1.00   0.13  0.00  0.00  0.87  0.00  0.00  0.00  0.00  0.00
  YS02001616YS02001619    1.00   0.13  0.00  0.00  0.87  0.00  0.00  0.00  0.00  0.00
  YS02001619YS02001622    1.00   0.13  0.00  0.00  0.87  0.00  0.00  0.00  0.00  0.00
  YS02001622YS02001625    1.00   0.13  0.00  0.00  0.87  0.00  0.00  0.00  0.04  0.00
  YS02001625YS02001629    1.00   0.13  0.05  0.00  0.79  0.00  0.03  0.00  0.00  0.00
  YS02001629YS02163301    1.00   0.15  0.01  0.00  0.84  0.00  0.00  0.00  0.00  0.00
  YS02001633YS02163601    1.00   0.00  0.01  0.00  0.99  0.00  0.00  0.00  0.15  0.00
  YS02001641YS02001644    1.00   0.00  0.01  0.00  0.99  0.00  0.00  0.00  0.00  0.00
  YS02001644YS02001647    1.00   0.00  0.17  0.00  0.83  0.00  0.00  0.00  0.00  0.00
  YS02001647YS02001649    1.00   0.00  0.17  0.00  0.82  0.01  0.00  0.00  0.02  0.00
  YS02001649YS02001757    1.00   0.00  0.00  0.00  0.98  0.02  0.00  0.00  0.18  0.00
  YS02001652YS02001649    1.00   0.00  0.00  0.00  0.97  0.03  0.00  0.00  0.16  0.00
  YS02001655YS02001652    1.00   0.00  0.00  0.00  0.79  0.00  0.00  0.21  0.01  0.00
  YS02001658YS02001655    1.00   0.00  0.14  0.00  0.78  0.08  0.00  0.00  0.02  0.00
  YS02001661YS02001658    1.00   0.14  0.00  0.00  0.77  0.09  0.00  0.00  0.00  0.00
  YS02001664YS02001661    1.00   0.13  0.00  0.00  0.82  0.05  0.00  0.00  0.87  0.00
  YS02001745YS02001748    1.00   0.00  0.00  0.00  0.77  0.00  0.00  0.23  0.01  0.00
  YS02001748YS02001751    1.00   0.00  0.00  0.00  0.91  0.09  0.00  0.00  0.12  0.00
  YS02001751YS02001754    1.00   0.00  0.00  0.00  0.78  0.00  0.00  0.22  0.00  0.00
  YS02001754YS02001757    1.00   0.00  0.00  0.00  1.00  0.00  0.00  0.00  0.21  0.00
  YS02001757CaochengTiaoxuchi    1.00   0.00  0.00  0.00  0.98  0.02  0.00  0.00  0.20  0.00
  YS02001759YS02001757    1.00   0.00  0.00  0.00  1.00  0.00  0.00  0.00  0.06  0.00
  YS02001762YS02001759    1.00   0.00  0.00  0.00  1.00  0.00  0.00  0.00  0.03  0.00
  YS02001765YS02001762    1.00   0.00  0.00  0.00  1.00  0.00  0.00  0.00  0.15  0.00
  YS02001767YS02001765    1.00   0.00  0.00  0.00  1.00  0.00  0.00  0.00  0.00  0.00
  YS02001770YS02001767    1.00   0.00  0.00  0.00  1.00  0.00  0.00  0.00  0.00  0.00
  YS02001774YS02001770    1.00   0.00  0.13  0.00  0.87  0.00  0.00  0.00  0.03  0.00
  YS02001779YS02001774    1.00   0.00  0.00  0.00  1.00  0.00  0.00  0.00  0.17  0.00
  YS02001783YS02001784    1.00   0.00  0.18  0.00  0.82  0.00  0.00  0.00  0.00  0.00
  YS02001784YS02001785    1.00   0.00  0.00  0.00  1.00  0.00  0.00  0.00  0.17  0.00
  YS02001786YS02001788    1.00   0.00  0.00  0.00  0.96  0.04  0.00  0.00  0.00  0.00
  YS02001788YS02001790    1.00   0.00  0.00  0.00  0.96  0.04  0.00  0.00  0.18  0.00
  YS02001790YS02001791    1.00   0.00  0.00  0.00  0.79  0.21  0.00  0.00  0.03  0.00
  YS02001791YS02001793    1.00   0.00  0.00  0.00  0.78  0.22  0.00  0.00  0.00  0.00
  YS02001793JiankangQianchi    1.00   0.00  0.00  0.00  0.93  0.06  0.00  0.00  0.19  0.00
  YS02001882YS02001884    1.00   0.15  0.01  0.00  0.84  0.00  0.00  0.00  0.00  0.00
  YS02001884YS02001887    1.00   0.06  0.05  0.00  0.89  0.00  0.00  0.00  0.00  0.00
  YS02001887YS02001890    1.00   0.00  0.00  0.00  0.97  0.00  0.03  0.00  0.00  0.00
  YS02001890YS02001895    1.00   0.00  0.16  0.00  0.84  0.00  0.00  0.00  0.00  0.00
  YS02001895YS02001898    1.00   0.16  0.00  0.00  0.82  0.00  0.02  0.00  0.00  0.00
  YS02001898YS02001901    1.00   0.16  0.00  0.00  0.83  0.00  0.00  0.00  0.01  0.00
  YS02001901YS02001904    1.00   0.16  0.00  0.00  0.84  0.00  0.00  0.00  0.00  0.00
  YS02001904YS02001907    1.00   0.00  0.16  0.00  0.84  0.00  0.00  0.00  0.00  0.00
  YS02001907YS02006553    1.00   0.00  0.02  0.00  0.98  0.00  0.00  0.00  0.00  0.00
  YS02001910YS02001907    1.00   0.00  0.00  0.00  0.97  0.00  0.00  0.03  0.12  0.00
  YS02001915YS02001910    1.00   0.00  0.00  0.00  0.97  0.03  0.00  0.00  0.16  0.00
  YS02001918YS02001915    1.00   0.00  0.01  0.00  0.98  0.02  0.00  0.00  0.77  0.00
  YS02001920YS02001918    1.00   0.00  0.01  0.00  0.99  0.00  0.00  0.00  0.00  0.00
  YS02001923YS02001920    1.00   0.00  0.00  0.00  1.00  0.00  0.00  0.00  0.94  0.00
  YS02001926YS02001923    1.00   0.00  0.07  0.00  0.05  0.00  0.88  0.00  0.00  0.00
  YS02001929YS02001926    1.00   0.00  0.13  0.00  0.87  0.00  0.00  0.00  0.83  0.00
  YS02006553YS02006556    1.00   0.01  0.00  0.00  0.99  0.00  0.00  0.00  0.03  0.00
  YS02006556YS02006558    1.00   0.00  0.00  0.00  1.00  0.00  0.00  0.00  0.00  0.00
  YS02006558YS02006561    1.00   0.18  0.00  0.00  0.06  0.77  0.00  0.00  0.19  0.00
  YS02006561YS02001783    1.00   0.18  0.00  0.00  0.78  0.04  0.00  0.00  0.74  0.00
  YS02163301YS02001633    1.00   0.00  0.15  0.00  0.85  0.00  0.00  0.00  0.00  0.00
  YS02163601YS02164001    1.00   0.00  0.08  0.00  0.92  0.00  0.00  0.00  0.00  0.00
  YS02164001YS02001641    1.00   0.01  0.07  0.00  0.92  0.00  0.00  0.00  0.05  0.00
  
  
  *************************
  Conduit Surcharge Summary
  *************************
  
  ----------------------------------------------------------------------------
                                                           Hours        Hours 
                         --------- Hours Full --------   Above Full   Capacity
  Conduit                Both Ends  Upstream  Dnstream   Normal Flow   Limited
  ----------------------------------------------------------------------------
  WS02003072WS02003073        0.01      0.01      0.01      2.83         0.01
  WS02004404WS02004405        0.01      0.01      0.01      2.48         0.01
  WS02006109WS02006110        0.01      0.01      1.82      0.01         0.01
  WS02006110WS02006113        0.01      0.01      1.80      0.01         0.01
  WS02006111WS02006112        0.01      0.01      1.87      0.01         0.01
  WS02006228WS02006109        1.77      1.82      1.77      2.05         1.77
  WS02006229WS02006228        1.76      1.78      1.76      1.94         1.76
  WS02006230WS02006229        1.87      1.90      1.87      2.84         1.87
  WS02006231WS02006230        0.01      0.01      0.01      2.62         0.01
  WS02006232WS02006231        0.01      0.01      1.83      0.01         0.01
  WS02006234WS02006232        1.73      1.73      1.83      0.01         0.01
  WS02006235WS02006234        0.01      0.01      1.78      2.46         0.01
  WS02006238WS02006235        1.78      1.78      1.84      0.01         0.01
  WS02006239WS02006238        1.80      1.83      1.80      2.01         1.80
  WS02006240WS02006239        1.78      1.79      1.78      2.04         1.78
  WS02006242WS02006240        1.78      1.78      1.88      2.14         0.01
  WS02006243WS02006242        1.81      1.81      1.86      0.01         0.01
  WS02006245WS02006243        1.80      1.81      1.80      2.12         1.80
  WS02006247WS02006245        1.80      1.83      1.80      2.25         1.80
  WS02006248WS02006247        1.80      1.80      1.82      0.01         0.01
  WS02006249WS02006248        1.79      1.79      1.81      2.24         0.01
  WS02006251WS02006249        1.81      1.82      1.81      2.22         1.81
  WS02006252WS02006251        2.26      2.26      2.26      2.26         0.01
  WS02006256WS02006235        2.55      2.55      3.67      0.02         0.01
  YS02001580YS02001583        0.40      0.40      0.46      0.01         0.01
  YS02001583YS02001586        0.41      0.41      0.62      0.01         0.01
  YS02001586YS02001590        0.63      0.63      0.73      0.01         0.01
  YS02001590YS02001593        0.74      0.74      0.75      0.71         0.01
  YS02001593YS02001596        0.75      0.75      1.01      0.01         0.01
  YS02001596YS02001600        1.19      1.19      1.52      0.01         0.01
  YS02001600YS02001601        2.45      2.45      6.40      0.01         0.01
  YS02001601YS02001602        6.37      6.37      6.41      0.89         0.01
  YS02001602YS02001605        6.35      6.35      6.37      2.05         0.22
  YS02001605YS02001607        6.32      6.35      6.32      1.23         1.14
  YS02001607YS02001610        1.28      1.28      1.42      0.01         0.01
  YS02001610YS02001613        1.28      1.28      1.42      0.01         0.01
  YS02001613YS02001616        1.13      1.13      1.28      0.01         0.01
  YS02001616YS02001619        1.07      1.07      1.13      0.01         0.01
  YS02001619YS02001622        1.07      1.07      1.15      0.59         0.48
  YS02001622YS02001625        1.15      1.15      6.24      0.01         0.01
  YS02001625YS02001629        1.02      1.02      6.24      0.01         0.01
  YS02001629YS02163301        6.24      6.24      6.24      0.03         0.11
  YS02001633YS02163601        6.25      6.25      6.25      0.35         0.34
  YS02001641YS02001644        6.22      6.23      6.22      1.36         1.21
  YS02001644YS02001647        6.18      6.18      6.22      0.04         0.01
  YS02001647YS02001649        6.18      6.18      6.19      0.01         0.01
  YS02001649YS02001757        6.18      6.19      6.18      0.22         0.18
  YS02001652YS02001649        6.17      6.17      6.19      0.01         0.01
  YS02001655YS02001652        0.68      0.68      6.17      0.01         0.01
  YS02001658YS02001655        0.01      0.01      0.68      0.01         0.01
  YS02001661YS02001658        0.01      0.01      0.01      0.01         0.01
  YS02001748YS02001751        0.01      0.01      0.03      0.01         0.01
  YS02001751YS02001754        0.03      0.03      6.16      0.01         0.01
  YS02001754YS02001757        6.16      6.16      6.18      0.01         0.01
  YS02001757CaochengTiaoxuchi        6.13      6.18      6.13      0.23         0.15
  YS02001759YS02001757        6.17      6.17      6.18      0.01         0.01
  YS02001762YS02001759        6.17      6.17      6.17      0.01         0.02
  YS02001765YS02001762        6.17      6.17      6.17      0.01         0.01
  YS02001767YS02001765        6.17      6.17      6.17      0.01         0.02
  YS02001770YS02001767        6.17      6.17      6.17      0.36         0.49
  YS02001774YS02001770        6.17      6.17      6.17      0.01         0.01
  YS02001779YS02001774        5.97      5.97      6.17      0.01         0.01
  YS02001783YS02001784        0.53      0.53      0.53      0.49         0.45
  YS02001784YS02001785        0.52      0.53      0.52      0.72         0.52
  YS02001786YS02001788        0.52      0.52      0.52      0.62         0.52
  YS02001788YS02001790        0.52      0.52      6.19      0.01         0.01
  YS02001790YS02001791        6.19      6.19      6.19      0.27         0.27
  YS02001791YS02001793        6.19      6.19      6.21      0.01         0.01
  YS02001793JiankangQianchi        6.20      6.20      6.37      0.01         0.01
  YS02001882YS02001884        0.38      0.38      0.39      0.01         0.01
  YS02001884YS02001887        0.41      0.41      0.42      0.01         0.01
  YS02001887YS02001890        0.43      0.43      0.44      0.01         0.01
  YS02001890YS02001895        0.37      0.37      0.46      0.01         0.01
  YS02001895YS02001898        0.36      0.36      0.37      0.01         0.01
  YS02001898YS02001901        0.37      0.37      0.41      0.01         0.01
  YS02001901YS02001904        0.40      0.40      0.41      0.01         0.01
  YS02001904YS02001907        0.40      0.40      0.61      0.01         0.01
  YS02001907YS02006553        0.73      0.73      0.79      0.01         0.01
  YS02001910YS02001907        0.46      0.46      0.60      0.01         0.01
  YS02001915YS02001910        0.37      0.37      0.46      0.01         0.01
  YS02001918YS02001915        0.28      0.28      0.37      0.01         0.01
  YS02001920YS02001918        0.28      0.28      0.30      0.01         0.01
  YS02001923YS02001920        0.22      0.22      0.30      0.01         0.01
  YS02001926YS02001923        0.01      0.01      0.01      0.01         0.01
  YS02001929YS02001926        0.01      0.01      0.01      0.01         0.01
  YS02006553YS02006556        0.53      0.53      0.61      0.01         0.01
  YS02006556YS02006558        0.57      0.57      0.62      0.01         0.01
  YS02006558YS02006561        0.40      0.52      0.40      0.68         0.40
  YS02006561YS02001783        0.32      0.32      0.53      0.01         0.01
  YS02163301YS02001633        6.24      6.24      6.25      0.01         0.01
  YS02163601YS02164001        6.23      6.23      6.25      0.06         0.01
  YS02164001YS02001641        6.23      6.23      6.23      0.67         0.64
  
  
  ***************
  Pumping Summary
  ***************
  
  ---------------------------------------------------------------------------------------------------------
                                                  Min       Avg       Max     Total     Power    % Time Off
                        Percent   Number of      Flow      Flow      Flow    Volume     Usage    Pump Curve
  Pump                 Utilized   Start-Ups       LPS       LPS       LPS  10^6 ltr     Kw-hr    Low   High
  ---------------------------------------------------------------------------------------------------------
  CC-R1                    1.06           1      0.00    683.00    683.00     0.208      3.51    0.0  100.0
  CC-R2                    1.06           1      0.00    683.00    683.00     0.208      3.51    0.0  100.0
  CC-S1                   28.23           4      0.00    200.00    200.00     1.626      7.01    0.0   56.5
  CC-S2                   28.23           4      0.00    200.00    200.00     1.626      7.01    0.0   56.5
  JK-R1                    0.97           2      0.00    347.46   1000.00     0.078      0.47    0.0    0.0
  JK-R2                    0.97           2      0.00    347.46   1000.00     0.078      0.47    0.0    0.0
  JK-S                     0.97           2      0.00    104.30    300.00     0.023      0.44    0.0    0.0
  XR-1                   100.00           1      0.00     95.00     95.00     2.736     68.18    0.0    0.0
  XR-2                   100.00           1      0.00     95.00     95.00     2.736     68.18    0.0    0.0
  XR-3                   100.00           1      0.00     95.00     95.00     2.736     68.18    0.0    0.0
  XR-4                   100.00           1      0.00     95.00     95.00     2.736     68.18    0.0    0.0
  

  Analysis begun on:  Wed Nov  5 16:30:08 2025
  Analysis ended on:  Wed Nov  5 16:30:11 2025
  Total elapsed time: 00:00:03