
  EPA STORM WATER MANAGEMENT MODEL - VERSION 5.2 (Build 5.2.4)
  PYSWMM TOOLKIT API - VERSION v1.0 (2023-11-27)
  ------------------------------------------------------------

  WARNING 04: minimum elevation drop used for Conduit WS02004404WS02004405
  WARNING 03: negative offset ignored for Link YS02001904YS02001907
  
  ****************
  Analysis Options
  ****************
  Flow Units ............... LPS
  Process Models:
    Rainfall/Runoff ........ YES
    RDII ................... NO
    Snowmelt ............... NO
    Groundwater ............ NO
    Flow Routing ........... YES
    Ponding Allowed ........ NO
    Water Quality .......... NO
  Infiltration Method ...... HORTON
  Flow Routing Method ...... DYNWAVE
  Surcharge Method ......... EXTRAN
  Starting Date ............ 08/28/2015 08:00:00
  Ending Date .............. 08/28/2015 16:00:00
  Antecedent Dry Days ...... 8.0
  Report Time Step ......... 00:01:00
  Wet Time Step ............ 00:01:00
  Dry Time Step ............ 00:01:00
  Routing Time Step ........ 30.00 sec
  Variable Time Step ....... YES
  Maximum Trials ........... 8
  Number of Threads ........ 4
  Head Tolerance ........... 0.001500 m
  
  
  **************************        Volume         Depth
  Runoff Quantity Continuity     hectare-m            mm
  **************************     ---------       -------
  Initial LID Storage ......         0.049         1.488
  Total Precipitation ......         1.405        42.345
  Evaporation Loss .........         0.000         0.000
  Infiltration Loss ........         0.080         2.405
  Surface Runoff ...........         1.003        30.246
  Final Storage ............         0.371        11.188
  Continuity Error (%) .....        -0.012
  
  
  **************************        Volume        Volume
  Flow Routing Continuity        hectare-m      10^6 ltr
  **************************     ---------     ---------
  Dry Weather Inflow .......         0.602         6.020
  Wet Weather Inflow .......         1.003        10.030
  Groundwater Inflow .......         0.000         0.000
  RDII Inflow ..............         0.000         0.000
  External Inflow ..........         0.105         1.045
  External Outflow .........         1.589        15.888
  Flooding Loss ............         0.224         2.239
  Evaporation Loss .........         0.000         0.000
  Exfiltration Loss ........         0.000         0.000
  Initial Stored Volume ....         0.303         3.031
  Final Stored Volume ......         0.658         6.578
  Continuity Error (%) .....       -22.752
  
  
  *************************
  Highest Continuity Errors
  *************************
  Node YS02001774 (36.41%)
  Node WS02006256 (-5.89%)
  Node YS02001884 (4.52%)
  Node YS02001754 (3.54%)
  Node YS02001767 (3.40%)
  
  
  ***************************
  Time-Step Critical Elements
  ***************************
  Link WS02006235WS02006234 (27.20%)
  Link WS02001212WS02001213 (22.72%)
  Link WS02006238WS02006235 (21.23%)
  Link WS02006252WS02006251 (9.76%)
  Link WS02003066WSF200 (5.94%)
  
  
  ********************************
  Highest Flow Instability Indexes
  ********************************
  Link WS02006113WS02006111 (44)
  Link WS02006111WS02006112 (33)
  Link WS02006110WS02006113 (24)
  Link YS02006558YS02006561 (18)
  Link WS02006256WS02006235 (11)
  
  
  *********************************
  Most Frequent Nonconverging Nodes
  *********************************
  Node CC-1 (0.91%)
  Node CC-2 (0.91%)
  Node JK-1 (0.91%)
  Node JK-2 (0.91%)
  Node WSC (0.91%)
  
  
  *************************
  Routing Time Step Summary
  *************************
  Minimum Time Step           :     0.01 sec
  Average Time Step           :     3.18 sec
  Maximum Time Step           :     6.46 sec
  % of Time in Steady State   :     0.00
  Average Iterations per Step :     2.21
  % of Steps Not Converging   :     0.91
  Time Step Frequencies       :
     30.000 - 13.228 sec      :     0.00 %
     13.228 -  5.833 sec      :    22.20 %
      5.833 -  2.572 sec      :    42.68 %
      2.572 -  1.134 sec      :    18.53 %
      1.134 -  0.500 sec      :    16.60 %
  
  
  ***************************
  Subcatchment Runoff Summary
  ***************************
  
  ------------------------------------------------------------------------------------------------------------------------------
                            Total      Total      Total      Total     Imperv       Perv      Total       Total     Peak  Runoff
                           Precip      Runon       Evap      Infil     Runoff     Runoff     Runoff      Runoff   Runoff   Coeff
  Subcatchment                 mm         mm         mm         mm         mm         mm         mm    10^6 ltr      LPS
  ------------------------------------------------------------------------------------------------------------------------------
  sub60                     42.35       0.00       0.00       1.46      27.83       2.47      30.30        0.40    74.83   0.715
  sub61                     42.35       0.00       0.00       2.24      27.81       3.65      31.45        0.58   107.77   0.743
  sub62                     42.35       0.00       0.00       0.99      29.64       1.68      31.31        0.86   152.34   0.739
  sub63                     42.35       0.00       0.00       4.08      23.82       5.97      29.79        0.68   120.20   0.703
  sub64                     42.35       0.00       0.00       1.96      27.11       2.99      30.09        0.72   123.60   0.711
  sub65                     42.35       0.00       0.00       1.80      29.25       2.72      31.97        0.88   148.85   0.755
  sub66                     42.35       0.00       0.00       4.63      23.01       5.11      28.11        1.31   218.77   0.664
  sub67                     42.35       0.00       0.00       0.98      30.39       1.75      32.15        0.60   116.39   0.759
  sub68                     42.35       0.00       0.00       1.72      26.84       2.80      29.64        0.82   148.70   0.700
  sub69                     42.35       0.00       0.00       1.59      28.44       3.45      31.89        1.18   192.25   0.753
  sub70                     42.35       0.00       0.00       5.02      22.77       6.76      29.53        0.85   134.07   0.697
  sub71                     42.35       0.00       0.00       0.91      26.92       1.51      28.42        0.74   126.84   0.671
  sub72                     42.35       0.00       0.00       0.87      29.06       1.39      30.46        0.42    69.34   0.719
  

  ***********************
  LID Performance Summary
  ***********************

  --------------------------------------------------------------------------------------------------------------------
                                         Total      Evap     Infil   Surface    Drain    Initial     Final  Continuity
                                        Inflow      Loss      Loss   Outflow   Outflow   Storage   Storage       Error
  Subcatchment      LID Control             mm        mm        mm        mm        mm        mm        mm           %
  --------------------------------------------------------------------------------------------------------------------
  sub60             GreenRoof            42.35      0.00      0.00      0.00      0.00      7.05     49.40       -0.00
  sub61             GreenRoof            42.35      0.00      0.00      0.00      0.00      7.05     49.40       -0.00
  sub62             GreenRoof            42.35      0.00      0.00      0.00      0.00      7.05     49.40       -0.00
  sub63             GreenRoof            42.35      0.00      0.00      0.00      0.00      7.05     49.40       -0.00
  sub64             GreenRoof            42.35      0.00      0.00      0.00      0.00      7.05     49.40       -0.00
  sub65             GreenRoof            42.35      0.00      0.00      0.00      0.00      7.05     49.40       -0.00
  sub66             GreenRoof            42.35      0.00      0.00      0.00      0.00      7.05     49.40       -0.00
  sub67             GreenRoof            42.35      0.00      0.00      0.00      0.00      7.05     49.40       -0.00
  sub68             GreenRoof            42.35      0.00      0.00      0.00      0.00      7.05     49.40       -0.00
  sub69             GreenRoof            42.35      0.00      0.00      0.00      0.00      7.05     49.40       -0.00
  sub70             GreenRoof            42.35      0.00      0.00      0.00      0.00      7.05     49.40       -0.00
  sub71             GreenRoof            42.35      0.00      0.00      0.00      0.00      7.05     49.40       -0.00
  sub72             GreenRoof            42.35      0.00      0.00      0.00      0.00      7.05     49.40       -0.00
  
  ******************
  Node Depth Summary
  ******************
  
  ---------------------------------------------------------------------------------
                                 Average  Maximum  Maximum  Time of Max    Reported
                                   Depth    Depth      HGL   Occurrence   Max Depth
  Node                 Type       Meters   Meters   Meters  days hr:min      Meters
  ---------------------------------------------------------------------------------
  WS02001211           JUNCTION     0.76     0.78     5.62     0  03:09        0.78
  WS02001212           JUNCTION     0.46     0.49     5.55     0  03:08        0.49
  WS02001213           JUNCTION     0.69     0.73     5.49     0  03:08        0.73
  WS02003059           JUNCTION     0.73     0.78     5.47     0  03:07        0.78
  WS02003060           JUNCTION     0.39     0.47     5.41     0  03:06        0.47
  WS02003066           JUNCTION     0.16     0.27     5.82     0  03:03        0.27
  WS02003067           JUNCTION     0.45     0.65     5.97     0  03:03        0.65
  WS02003069           JUNCTION     0.43     0.54     5.12     0  03:07        0.54
  WS02003072           JUNCTION     0.50     0.60     4.97     0  03:08        0.60
  WS02003073           JUNCTION     0.30     0.37     4.43     0  03:08        0.37
  WS02004138           JUNCTION     0.19     0.20     7.45     0  00:00        0.19
  WS02004139           JUNCTION     0.71     0.73     5.64     0  03:09        0.73
  WS02004401           JUNCTION     0.53     0.75     6.75     0  02:59        0.75
  WS02004402           JUNCTION     0.56     0.78     6.74     0  03:00        0.78
  WS02004403           JUNCTION     0.58     0.80     6.73     0  03:00        0.80
  WS02004404           JUNCTION     0.66     0.88     6.73     0  03:00        0.88
  WS02004405           JUNCTION     0.66     0.88     6.73     0  03:00        0.87
  WS02004406           JUNCTION     0.67     0.88     6.71     0  03:00        0.88
  WS02004407           JUNCTION     0.14     0.26     6.57     0  03:01        0.26
  WS02004409           JUNCTION     0.32     0.58     6.35     0  03:01        0.57
  WS02004410           JUNCTION     0.35     0.59     6.31     0  03:04        0.59
  WS02004411           JUNCTION     0.37     0.61     6.29     0  03:02        0.61
  WS02004412           JUNCTION     0.40     0.62     6.26     0  03:05        0.62
  WS02004413           JUNCTION     0.55     0.79     6.26     0  03:02        0.79
  WS02006109           JUNCTION     0.58     0.83     7.45     0  03:06        0.83
  WS02006110           JUNCTION     0.59     0.82     7.41     0  03:06        0.82
  WS02006111           JUNCTION     0.15     0.25     6.96     0  01:56        0.25
  WS02006112           JUNCTION     0.68     0.93     6.82     0  03:37        0.93
  WS02006113           JUNCTION     0.23     0.39     7.29     0  03:36        0.39
  WS02006115           JUNCTION     0.41     0.65     6.78     0  03:37        0.65
  WS02006116           JUNCTION     0.50     0.73     6.77     0  02:59        0.73
  WS02006228           JUNCTION     0.57     0.84     7.49     0  03:06        0.84
  WS02006229           JUNCTION     0.54     0.82     7.52     0  01:45        0.82
  WS02006230           JUNCTION     0.53     0.86     7.60     0  01:44        0.86
  WS02006231           JUNCTION     0.33     0.60     7.72     0  01:44        0.60
  WS02006232           JUNCTION     0.45     0.75     7.79     0  01:44        0.75
  WS02006234           JUNCTION     0.38     0.71     7.87     0  01:44        0.71
  WS02006235           JUNCTION     0.41     0.76     7.92     0  01:41        0.76
  WS02006238           JUNCTION     0.44     0.80     7.95     0  01:41        0.79
  WS02006239           JUNCTION     0.42     0.80     8.01     0  01:41        0.80
  WS02006240           JUNCTION     0.41     0.79     8.08     0  01:41        0.78
  WS02006242           JUNCTION     0.48     0.90     8.17     0  01:41        0.90
  WS02006243           JUNCTION     0.42     0.84     8.26     0  01:43        0.84
  WS02006245           JUNCTION     0.42     0.85     8.33     0  01:41        0.84
  WS02006247           JUNCTION     0.45     0.89     8.39     0  01:43        0.88
  WS02006248           JUNCTION     0.42     0.85     8.44     0  01:43        0.85
  WS02006249           JUNCTION     0.45     0.89     8.49     0  01:42        0.89
  WS02006251           JUNCTION     0.45     0.91     8.58     0  01:43        0.91
  WS02006252           JUNCTION     0.31     1.50     9.74     0  00:00        0.58
  WS02006256           JUNCTION     0.65     2.35     9.28     0  00:00        2.35
  WSF200               JUNCTION     0.13     0.25     5.48     0  03:03        0.25
  YS02001580           JUNCTION     0.00     0.00     8.54     0  00:00        0.00
  YS02001583           JUNCTION     0.00     0.00     8.50     0  00:00        0.00
  YS02001586           JUNCTION     0.08     0.20     8.37     0  02:23        0.20
  YS02001590           JUNCTION     0.16     0.35     8.22     0  02:23        0.35
  YS02001593           JUNCTION     0.08     0.19     8.05     0  02:23        0.19
  YS02001596           JUNCTION     0.13     0.52     7.94     0  02:23        0.52
  YS02001600           JUNCTION     0.30     0.80     7.93     0  02:23        0.80
  YS02001601           JUNCTION     0.56     1.08     7.92     0  02:23        1.08
  YS02001602           JUNCTION     0.48     0.93     7.83     0  02:23        0.93
  YS02001605           JUNCTION     0.46     0.84     7.74     0  02:23        0.84
  YS02001607           JUNCTION     0.47     0.73     7.58     0  03:01        0.73
  YS02001610           JUNCTION     0.51     0.78     7.58     0  03:01        0.78
  YS02001613           JUNCTION     0.47     0.73     7.57     0  03:01        0.73
  YS02001616           JUNCTION     0.40     0.66     7.57     0  03:01        0.65
  YS02001619           JUNCTION     0.38     0.63     7.56     0  03:01        0.63
  YS02001622           JUNCTION     0.38     0.64     7.54     0  03:01        0.64
  YS02001625           JUNCTION     0.65     0.94     7.54     0  03:01        0.94
  YS02001629           JUNCTION     0.66     0.96     7.51     0  03:00        0.96
  YS02001633           JUNCTION     0.74     1.04     7.49     0  03:01        1.04
  YS02001641           JUNCTION     0.74     1.01     7.45     0  03:01        1.01
  YS02001644           JUNCTION     0.74     1.00     7.44     0  03:01        1.00
  YS02001647           JUNCTION     0.53     0.80     7.41     0  03:01        0.79
  YS02001649           JUNCTION     0.69     1.01     7.40     0  03:00        1.01
  YS02001652           JUNCTION     0.50     0.80     7.40     0  03:00        0.80
  YS02001655           JUNCTION     0.32     0.55     7.40     0  03:00        0.54
  YS02001658           JUNCTION     0.13     0.25     7.39     0  03:01        0.25
  YS02001661           JUNCTION     0.12     0.22     7.62     0  02:21        0.22
  YS02001664           JUNCTION     0.05     0.13     8.06     0  02:21        0.13
  YS02001745           JUNCTION     0.04     0.12     7.63     0  01:41        0.12
  YS02001748           JUNCTION     0.16     0.30     7.38     0  03:01        0.30
  YS02001751           JUNCTION     0.29     0.50     7.38     0  03:01        0.50
  YS02001754           JUNCTION     0.47     0.77     7.38     0  03:01        0.77
  YS02001757           JUNCTION     0.77     1.12     7.38     0  03:00        1.11
  YS02001759           JUNCTION     0.68     1.02     7.38     0  03:02        1.01
  YS02001762           JUNCTION     0.65     0.98     7.38     0  03:01        0.98
  YS02001765           JUNCTION     0.61     0.93     7.38     0  03:01        0.93
  YS02001767           JUNCTION     0.59     0.89     7.38     0  03:01        0.89
  YS02001770           JUNCTION     0.59     0.88     7.38     0  03:01        0.88
  YS02001774           JUNCTION     0.66     0.96     7.38     0  03:01        0.96
  YS02001779           JUNCTION     0.42     0.69     7.38     0  03:01        0.69
  YS02001783           JUNCTION     0.43     0.72     6.86     0  01:44        0.71
  YS02001784           JUNCTION     0.48     0.79     6.86     0  01:43        0.74
  YS02001786           JUNCTION     0.50     0.78     6.81     0  01:43        0.75
  YS02001788           JUNCTION     0.52     0.80     6.78     0  01:43        0.76
  YS02001790           JUNCTION     0.79     1.15     6.79     0  01:41        1.06
  YS02001791           JUNCTION     0.91     1.31     6.78     0  01:40        1.18
  YS02001793           JUNCTION     1.40     1.80     6.64     0  04:13        1.80
  YS02001882           JUNCTION     0.23     0.52     7.24     0  02:23        0.52
  YS02001884           JUNCTION     0.32     0.62     7.24     0  02:23        0.62
  YS02001887           JUNCTION     0.39     0.70     7.24     0  02:23        0.70
  YS02001890           JUNCTION     0.42     0.73     7.23     0  02:23        0.73
  YS02001895           JUNCTION     0.20     0.49     7.23     0  02:23        0.48
  YS02001898           JUNCTION     0.21     0.50     7.24     0  02:24        0.50
  YS02001901           JUNCTION     0.32     0.62     7.23     0  02:24        0.62
  YS02001904           JUNCTION     0.30     0.60     7.23     0  02:23        0.60
  YS02001907           JUNCTION     0.62     0.94     7.23     0  02:23        0.94
  YS02001910           JUNCTION     0.42     0.73     7.24     0  02:24        0.73
  YS02001915           JUNCTION     0.22     0.51     7.23     0  02:23        0.51
  YS02001918           JUNCTION     0.07     0.15     7.22     0  02:24        0.15
  YS02001920           JUNCTION     0.16     0.27     7.28     0  02:23        0.27
  YS02001923           JUNCTION     0.05     0.12     7.38     0  02:22        0.12
  YS02001926           JUNCTION     0.11     0.23     7.68     0  02:22        0.23
  YS02001929           JUNCTION     0.05     0.12     7.82     0  02:22        0.12
  YS02006553           JUNCTION     0.62     0.94     7.22     0  02:25        0.94
  YS02006556           JUNCTION     0.60     0.91     7.22     0  02:24        0.90
  YS02006558           JUNCTION     0.64     0.95     7.22     0  02:23        0.95
  YS02006561           JUNCTION     0.11     0.26     6.92     0  02:23        0.26
  YS02163301           JUNCTION     0.69     0.99     7.50     0  03:01        0.98
  YS02163601           JUNCTION     0.79     1.07     7.47     0  03:01        1.07
  YS02164001           JUNCTION     0.72     1.00     7.46     0  03:01        1.00
  CC-1                 OUTFALL      0.00     0.00     0.00     0  00:00        0.00
  CC-2                 OUTFALL      0.00     0.00     0.00     0  00:00        0.00
  JK-1                 OUTFALL      0.00     0.00     0.00     0  00:00        0.00
  JK-2                 OUTFALL      0.00     0.00     0.00     0  00:00        0.00
  WSC                  OUTFALL      0.30     0.37     1.04     0  03:09        0.37
  CC-storage           STORAGE      1.42     1.83     7.33     0  03:12        1.83
  JK-storage           STORAGE      4.81     5.80     6.60     0  01:41        5.80
  XR-storage           STORAGE      0.26     5.00     3.00     0  00:00        4.91
  
  
  *******************
  Node Inflow Summary
  *******************
  
  -------------------------------------------------------------------------------------------------
                                  Maximum  Maximum                  Lateral       Total        Flow
                                  Lateral    Total  Time of Max      Inflow      Inflow     Balance
                                   Inflow   Inflow   Occurrence      Volume      Volume       Error
  Node                 Type           LPS      LPS  days hr:min    10^6 ltr    10^6 ltr     Percent
  -------------------------------------------------------------------------------------------------
  WS02001211           JUNCTION      7.35   389.12     0  03:49       0.212        11.1       0.354
  WS02001212           JUNCTION      0.00   390.85     0  03:51           0        11.1       0.213
  WS02001213           JUNCTION      0.00   392.60     0  03:50           0        11.1       0.248
  WS02003059           JUNCTION      0.00   395.64     0  03:50           0          11       0.343
  WS02003060           JUNCTION     16.53   816.12     0  03:06       0.476        15.4       0.176
  WS02003066           JUNCTION      0.00   411.93     0  03:03           0        3.93       0.081
  WS02003067           JUNCTION      0.00   411.92     0  03:02           0        3.94       0.178
  WS02003069           JUNCTION      0.32   816.41     0  03:07     0.00922        15.4       0.190
  WS02003072           JUNCTION      0.00   816.40     0  03:07           0        15.3       0.236
  WS02003073           JUNCTION      1.82   818.21     0  03:08      0.0524        15.4       0.266
  WS02004138           JUNCTION      0.00   380.00     0  00:00           0        10.9       0.059
  WS02004139           JUNCTION      0.32   395.52     0  00:00     0.00924        10.9       0.412
  WS02004401           JUNCTION      0.00   412.17     0  02:59           0         4.1       0.355
  WS02004402           JUNCTION      0.00   412.14     0  03:00           0        4.08       0.349
  WS02004403           JUNCTION      0.00   412.12     0  03:00           0        4.07       0.331
  WS02004404           JUNCTION      0.16   412.24     0  03:00     0.00467        4.06       0.263
  WS02004405           JUNCTION      0.04   412.29     0  03:00      0.0011        4.05       0.393
  WS02004406           JUNCTION      0.00   412.29     0  03:00           0        4.04       0.653
  WS02004407           JUNCTION      0.00   412.13     0  03:01           0        4.01       0.096
  WS02004409           JUNCTION      0.00   412.07     0  03:01           0        4.01       0.230
  WS02004410           JUNCTION      0.00   412.04     0  03:01           0           4       0.289
  WS02004411           JUNCTION      0.00   412.00     0  03:01           0        3.99       0.316
  WS02004412           JUNCTION      0.00   412.00     0  03:02           0        3.97       0.366
  WS02004413           JUNCTION      0.00   411.99     0  03:02           0        3.96       0.579
  WS02006109           JUNCTION      1.23   411.74     0  01:45      0.0354        4.17       0.220
  WS02006110           JUNCTION      0.00   411.74     0  01:45           0        4.16       0.228
  WS02006111           JUNCTION      0.00   423.71     0  03:05           0        4.14       0.035
  WS02006112           JUNCTION      0.00   413.93     0  03:37           0        4.14       0.539
  WS02006113           JUNCTION      0.00   411.91     0  02:59           0        4.15       0.089
  WS02006115           JUNCTION      0.00   412.56     0  03:37           0        4.12       0.276
  WS02006116           JUNCTION      0.00   412.19     0  03:37           0        4.11       0.228
  WS02006228           JUNCTION      0.00   410.50     0  01:45           0        4.13       0.101
  WS02006229           JUNCTION      0.00   410.51     0  01:44           0        4.14       0.167
  WS02006230           JUNCTION     10.28   410.61     0  01:44       0.296        4.15       0.158
  WS02006231           JUNCTION      0.00   400.45     0  01:44           0        3.85      -0.001
  WS02006232           JUNCTION      0.00   400.38     0  01:44           0        3.87       0.361
  WS02006234           JUNCTION      0.00   400.74     0  01:44           0        3.86      -0.137
  WS02006235           JUNCTION      0.00   401.17     0  01:40           0        3.88       0.267
  WS02006238           JUNCTION      0.00   400.82     0  01:41           0        3.85      -0.265
  WS02006239           JUNCTION      0.00   400.83     0  01:41           0        3.84      -0.266
  WS02006240           JUNCTION      0.00   400.41     0  01:43           0        3.83      -0.028
  WS02006242           JUNCTION      0.00   400.47     0  01:41           0        3.83       0.053
  WS02006243           JUNCTION      0.00   400.74     0  01:41           0        3.83      -0.059
  WS02006245           JUNCTION      0.00   400.82     0  01:43           0        3.84       0.382
  WS02006247           JUNCTION      0.00   400.73     0  01:41           0        3.84       0.006
  WS02006248           JUNCTION      0.00   400.82     0  01:40           0        3.85       0.056
  WS02006249           JUNCTION      0.00   474.41     0  01:21           0        3.86       0.298
  WS02006251           JUNCTION      0.08   401.06     0  07:36     0.00222        3.86      -0.001
  WS02006252           JUNCTION      0.00   400.00     0  00:00           0        3.85      -0.060
  WS02006256           JUNCTION      0.00   300.00     0  00:00           0      0.0243      -5.562
  WSF200               JUNCTION      0.00   411.92     0  03:03           0        3.93       0.069
  YS02001580           JUNCTION      0.00     0.00     0  00:00           0           0       0.000 ltr
  YS02001583           JUNCTION      0.00     0.00     0  00:00           0           0       0.000 ltr
  YS02001586           JUNCTION    134.07   134.07     0  02:23       0.853       0.853       0.026
  YS02001590           JUNCTION      0.00   134.06     0  02:23           0       0.853      -0.013
  YS02001593           JUNCTION      0.00   134.02     0  02:23           0       0.853       0.009
  YS02001596           JUNCTION      0.00   134.02     0  02:23           0       0.853       0.038
  YS02001600           JUNCTION      0.00   135.36     0  02:25           0       0.853       0.051
  YS02001601           JUNCTION    192.25   324.60     0  02:22        1.18        2.03       0.274
  YS02001602           JUNCTION      0.00   324.57     0  02:22           0        2.03       0.264
  YS02001605           JUNCTION      0.00   324.56     0  02:23           0        2.03       0.384
  YS02001607           JUNCTION      0.00   324.55     0  02:23           0        2.03       0.496
  YS02001610           JUNCTION      0.00   323.84     0  02:23           0        2.03       0.493
  YS02001613           JUNCTION      0.00   322.94     0  02:24           0        2.03       0.462
  YS02001616           JUNCTION      0.00   322.38     0  02:24           0        2.03       0.340
  YS02001619           JUNCTION    218.77   539.19     0  02:23        1.31        3.33       0.186
  YS02001622           JUNCTION      0.00   538.51     0  02:24           0        3.32       0.299
  YS02001625           JUNCTION      0.00   537.79     0  02:24           0        3.32       0.940
  YS02001629           JUNCTION      0.00   537.62     0  02:25           0        3.29       0.277
  YS02001633           JUNCTION    149.05   681.80     0  02:25       0.886        4.15       0.636
  YS02001641           JUNCTION      0.00   681.88     0  02:25           0         4.1       0.439
  YS02001644           JUNCTION    123.64   800.52     0  02:24       0.724         4.8       0.453
  YS02001647           JUNCTION      0.00   800.23     0  02:24           0        4.76       0.404
  YS02001649           JUNCTION      0.00   912.92     0  02:24           0        5.41       0.607
  YS02001652           JUNCTION      0.00   120.27     0  02:21           0       0.684       2.101
  YS02001655           JUNCTION      0.15   120.29     0  02:21     0.00443       0.688       1.441
  YS02001658           JUNCTION      0.00   120.16     0  02:21           0        0.68       0.182
  YS02001661           JUNCTION      0.00   120.18     0  02:21           0       0.676       0.028
  YS02001664           JUNCTION    120.20   120.20     0  02:21       0.676       0.676      -0.011
  YS02001745           JUNCTION     74.83    74.83     0  01:41       0.398       0.398       0.103
  YS02001748           JUNCTION      0.04    74.82     0  01:41      0.0013       0.406       0.281
  YS02001751           JUNCTION      0.01    74.83     0  01:41    0.000317       0.411       2.082
  YS02001754           JUNCTION      0.26    75.05     0  01:41     0.00749       0.413       3.675
  YS02001757           JUNCTION      0.00  1153.65     0  02:23           0         7.1       1.296
  YS02001759           JUNCTION    107.81   243.23     0  01:42       0.578        1.37       1.535
  YS02001762           JUNCTION      0.00   143.90     0  01:44           0       0.807       2.370
  YS02001765           JUNCTION      0.00   145.99     0  01:43           0       0.821       2.557
  YS02001767           JUNCTION      0.54   148.82     0  01:42      0.0154       0.843       3.523
  YS02001770           JUNCTION    152.50   152.50     0  01:41       0.862        0.89       2.794
  YS02001774           JUNCTION      0.00    31.98     0  01:06           0      0.0583      57.261
  YS02001779           JUNCTION      0.01    11.48     0  01:09    0.000144       0.018     108.843
  YS02001783           JUNCTION      0.00   433.38     0  02:23           0        2.63       0.268
  YS02001784           JUNCTION      1.06   466.93     0  01:44      0.0305        2.65       0.395
  YS02001786           JUNCTION      0.06   471.78     0  01:44     0.00162        2.64       0.511
  YS02001788           JUNCTION      0.07   489.09     0  01:44     0.00204        2.63       0.521
  YS02001790           JUNCTION      0.15   469.68     0  01:45     0.00446        2.62       0.647
  YS02001791           JUNCTION      0.00   470.29     0  01:45           0         2.6       0.560
  YS02001793           JUNCTION      0.00   471.05     0  01:44           0        2.59       0.627
  YS02001882           JUNCTION      0.00    21.64     0  01:18           0      0.0286       2.475
  YS02001884           JUNCTION      0.00    31.73     0  01:15           0      0.0553       4.736
  YS02001887           JUNCTION    116.84   116.84     0  01:40       0.611       0.635       0.702
  YS02001890           JUNCTION      0.00   115.90     0  01:42           0       0.603       0.859
  YS02001895           JUNCTION      0.00   106.32     0  02:16           0       0.598       0.341
  YS02001898           JUNCTION      0.00   116.11     0  01:45           0       0.596       0.014
  YS02001901           JUNCTION      0.00   121.41     0  01:45           0       0.599       0.565
  YS02001904           JUNCTION      0.00   104.25     0  02:24           0       0.605       0.478
  YS02001907           JUNCTION      0.00   300.44     0  02:25           0        1.85       0.981
  YS02001910           JUNCTION      0.00   220.42     0  02:22           0        1.24       0.593
  YS02001915           JUNCTION    126.86   198.31     0  02:20       0.744        1.25       0.126
  YS02001918           JUNCTION      0.00    72.16     0  02:24           0       0.503       0.058
  YS02001920           JUNCTION      2.87    72.22     0  02:22      0.0827       0.504       0.207
  YS02001923           JUNCTION      0.04    69.35     0  02:22     0.00109       0.421       0.002
  YS02001926           JUNCTION      0.05    69.38     0  02:22      0.0015        0.42       0.061
  YS02001929           JUNCTION     69.34    69.34     0  02:22       0.419       0.419      -0.009
  YS02006553           JUNCTION      0.00   300.64     0  02:26           0        1.84       0.647
  YS02006556           JUNCTION      0.00   301.59     0  02:25           0        1.85       0.450
  YS02006558           JUNCTION    149.58   434.87     0  02:23       0.841        2.66       0.123
  YS02006561           JUNCTION      0.00   453.90     0  02:23           0        2.63       0.003
  YS02163301           JUNCTION      0.00   538.07     0  02:25           0        3.29       0.564
  YS02163601           JUNCTION      0.11   681.82     0  02:25     0.00317        4.12       0.645
  YS02164001           JUNCTION      0.00   681.80     0  02:25           0         4.1       0.406
  CC-1                 OUTFALL       0.00   683.00     0  00:00           0       0.208       0.000
  CC-2                 OUTFALL       0.00   683.00     0  00:00           0       0.208       0.000
  JK-1                 OUTFALL       0.00  1000.00     0  00:00           0      0.0791       0.000
  JK-2                 OUTFALL       0.00  1000.00     0  00:00           0      0.0791       0.000
  WSC                  OUTFALL       0.00   818.19     0  03:09           0        15.3       0.000
  CC-storage           STORAGE       0.00  1121.45     0  02:24           0        9.18       0.421
  JK-storage           STORAGE       0.00   472.31     0  01:44           0        2.72       0.594
  XR-storage           STORAGE     200.00   200.00     0  00:00        5.76        6.36     -41.886
  
  
  **********************
  Node Surcharge Summary
  **********************
  
  Surcharging occurs when water rises above the top of the highest conduit.
  ---------------------------------------------------------------------
                                               Max. Height   Min. Depth
                                   Hours       Above Crown    Below Rim
  Node                 Type      Surcharged         Meters       Meters
  ---------------------------------------------------------------------
  WS02006109           JUNCTION        2.05          0.015        1.805
  WS02006228           JUNCTION        2.04          0.013        2.187
  WS02006229           JUNCTION        2.06          0.024        2.426
  WS02006232           JUNCTION        2.12          0.050        1.430
  WS02006235           JUNCTION        2.06          0.050        1.240
  WS02006238           JUNCTION        2.09          0.082        1.348
  WS02006239           JUNCTION        2.07          0.064        1.226
  WS02006240           JUNCTION        2.07          0.076        1.314
  WS02006242           JUNCTION        2.16          0.173        0.647
  WS02006243           JUNCTION        2.09          0.127        0.643
  WS02006245           JUNCTION        2.09          0.140        0.710
  WS02006247           JUNCTION        2.10          0.177        0.583
  WS02006248           JUNCTION        2.08          0.133        0.247
  WS02006249           JUNCTION        2.10          0.189        0.201
  WS02006252           JUNCTION        2.59          1.100        0.000
  WS02006256           JUNCTION        3.98          2.050        0.000
  YS02001600           JUNCTION        0.37          0.122        1.068
  YS02001601           JUNCTION        1.78          0.458        0.982
  YS02001602           JUNCTION        1.54          0.331        0.939
  YS02001605           JUNCTION        1.51          0.235        0.945
  YS02001633           JUNCTION        0.08          0.019        1.041
  YS02001641           JUNCTION        0.06          0.012        1.088
  YS02001644           JUNCTION        0.01          0.004        0.916
  YS02001649           JUNCTION        0.05          0.010        1.040
  YS02001757           JUNCTION        4.67          0.117        1.093
  YS02001759           JUNCTION        0.09          0.016        1.194
  YS02001788           JUNCTION        0.01          0.000        1.480
  YS02001790           JUNCTION        6.31          0.347        0.810
  YS02001791           JUNCTION        6.33          0.513        1.407
  YS02001793           JUNCTION        6.37          0.804        1.796
  YS02163601           JUNCTION        0.24          0.075        1.005
  YS02164001           JUNCTION        0.01          0.001        1.099
  
  
  *********************
  Node Flooding Summary
  *********************
  
  Flooding refers to all water that overflows a node, whether it ponds or not.
  --------------------------------------------------------------------------
                                                             Total   Maximum
                                 Maximum   Time of Max       Flood    Ponded
                        Hours       Rate    Occurrence      Volume     Depth
  Node                 Flooded       LPS   days hr:min    10^6 ltr    Meters
  --------------------------------------------------------------------------
  WS02006252              0.01    245.63      0  00:00       0.000     0.000
  WS02006256              0.02    293.19      0  00:00       0.005     0.000
  JK-storage              6.30    471.95      0  01:44       2.234     0.000
  
  
  **********************
  Storage Volume Summary
  **********************
  
  ------------------------------------------------------------------------------------------------
                         Average    Avg   Evap  Exfil     Maximum    Max    Time of Max    Maximum
                          Volume   Pcnt   Pcnt   Pcnt      Volume   Pcnt     Occurrence    Outflow
  Storage Unit           1000 m³   Full   Loss   Loss     1000 m³   Full    days hr:min        LPS
  ------------------------------------------------------------------------------------------------
  CC-storage               3.967   61.9    0.0    0.0       5.094   79.5       0  03:12    1783.53
  JK-storage               0.242   82.9    0.0    0.0       0.291  100.0       0  01:41    2300.00
  XR-storage               0.031    2.1    0.0    0.0       0.600   41.7       0  00:00     380.00
  
  
  ***********************
  Outfall Loading Summary
  ***********************
  
  -----------------------------------------------------------
                         Flow       Avg       Max       Total
                         Freq      Flow      Flow      Volume
  Outfall Node           Pcnt       LPS       LPS    10^6 ltr
  -----------------------------------------------------------
  CC-1                   1.13    683.00    683.00       0.208
  CC-2                   1.13    683.00    683.00       0.208
  JK-1                   1.05    347.46   1000.00       0.079
  JK-2                   1.05    347.46   1000.00       0.079
  WSC                   99.93    573.38    818.19      15.313
  -----------------------------------------------------------
  System                20.86   2634.30   3366.35      15.888
  
  
  ********************
  Link Flow Summary
  ********************
  
  -----------------------------------------------------------------------------
                                 Maximum  Time of Max   Maximum    Max/    Max/
                                  |Flow|   Occurrence   |Veloc|    Full    Full
  Link                 Type          LPS  days hr:min     m/sec    Flow   Depth
  -----------------------------------------------------------------------------
  1                    CONDUIT    818.19     0  03:09      3.15    0.28    0.37
  WS02001211WS02001212 CONDUIT    390.85     0  03:51      0.78    0.30    0.64
  WS02001212WS02001213 CONDUIT    392.60     0  03:50      1.32    0.61    0.45
  WS02001213WS02003059 CONDUIT    395.64     0  03:50      0.85    0.65    0.75
  WS02003059WS02003060 CONDUIT    399.94     0  03:50      0.95    0.26    0.63
  WS02003060WS02003069 CONDUIT    816.09     0  03:07      1.80    0.32    0.42
  WS02003066WSF200     CONDUIT    411.92     0  03:03      2.69    0.07    0.19
  WS02003067WS02003066 CONDUIT    411.93     0  03:03      1.04    0.13    0.38
  WS02003069WS02003072 CONDUIT    816.40     0  03:07      1.55    0.39    0.47
  WS02003072WS02003073 CONDUIT    816.39     0  03:08      1.64    1.76    0.45
  WS02004138WS02004139 CONDUIT    395.20     0  00:00      3.65    0.08    0.43
  WS02004139WS02001211 CONDUIT    381.78     0  03:49      0.91    0.48    0.59
  WS02004401WS02004402 CONDUIT    412.14     0  03:00      0.99    0.49    0.77
  WS02004402WS02004403 CONDUIT    412.12     0  03:00      0.99    0.59    0.79
  WS02004403WS02004404 CONDUIT    412.08     0  03:00      0.93    0.30    0.84
  WS02004404WS02004405 CONDUIT    412.25     0  03:00      1.10    4.04    0.88
  WS02004405WS02004406 CONDUIT    412.29     0  03:00      1.03    0.81    0.88
  WS02004406WS02004407 CONDUIT    412.13     0  03:01      0.89    0.18    0.57
  WS02004407WS02004409 CONDUIT    412.07     0  03:01      1.34    0.15    0.42
  WS02004409WS02004410 CONDUIT    412.04     0  03:01      0.88    0.53    0.58
  WS02004410WS02004411 CONDUIT    412.00     0  03:01      0.84    0.56    0.60
  WS02004411WS02004412 CONDUIT    412.00     0  03:02      0.81    0.59    0.61
  WS02004412WS02004413 CONDUIT    411.99     0  03:02      0.70    0.28    0.70
  WS02004413WS02003067 CONDUIT    411.92     0  03:02      0.96    0.18    0.54
  WS02006109WS02006110 CONDUIT    411.74     0  01:45      0.84    0.79    0.94
  WS02006110WS02006113 CONDUIT    411.91     0  02:59      1.03    0.37    0.75
  WS02006111WS02006112 CONDUIT    413.93     0  03:37      1.83    0.20    0.65
  WS02006112WS02006115 CONDUIT    412.56     0  03:37      0.70    0.24    0.78
  WS02006113WS02006111 CONDUIT    423.71     0  03:05      2.25    0.51    0.40
  WS02006115WS02006116 CONDUIT    412.19     0  03:37      0.98    0.53    0.66
  WS02006116WS02004401 CONDUIT    412.17     0  02:59      1.00    0.57    0.74
  WS02006228WS02006109 CONDUIT    410.51     0  01:45      1.06    1.79    1.00
  WS02006229WS02006228 CONDUIT    410.50     0  01:45      1.13    1.36    1.00
  WS02006230WS02006229 CONDUIT    410.51     0  01:44      1.22    9.14    1.00
  WS02006231WS02006230 CONDUIT    400.33     0  01:44      1.37    6.07    0.77
  WS02006232WS02006231 CONDUIT    400.45     0  01:44      1.08    0.84    0.92
  WS02006234WS02006232 CONDUIT    400.38     0  01:44      1.40    0.81    1.00
  WS02006235WS02006234 CONDUIT    400.74     0  01:44      1.29    4.23    0.99
  WS02006238WS02006235 CONDUIT    401.14     0  01:40      1.48    0.90    1.00
  WS02006239WS02006238 CONDUIT    400.82     0  01:41      1.21    1.28    1.00
  WS02006240WS02006239 CONDUIT    400.83     0  01:41      1.30    1.26    1.00
  WS02006242WS02006240 CONDUIT    400.41     0  01:43      1.17    1.59    1.00
  WS02006243WS02006242 CONDUIT    400.47     0  01:41      1.41    0.86    1.00
  WS02006245WS02006243 CONDUIT    400.74     0  01:41      1.45    1.19    1.00
  WS02006247WS02006245 CONDUIT    400.82     0  01:43      1.43    3.18    1.00
  WS02006248WS02006247 CONDUIT    400.73     0  01:41      1.44    0.87    1.00
  WS02006249WS02006248 CONDUIT    400.82     0  01:40      1.40    2.20    1.00
  WS02006251WS02006249 CONDUIT    474.41     0  01:21      1.99    1.37    1.00
  WS02006252WS02006251 CONDUIT    400.99     0  07:36     25.58    1.47    1.00
  WS02006256WS02006235 CONDUIT    288.91     0  00:00      4.23    3.06    1.00
  WSF200WS02003060     CONDUIT    411.93     0  03:03      1.43    0.09    0.30
  YS02001580YS02001583 CONDUIT      0.00     0  00:00      0.00    0.00    0.00
  YS02001583YS02001586 CONDUIT      0.00     0  00:00      0.00    0.00    0.15
  YS02001586YS02001590 CONDUIT    134.06     0  02:23      1.20    0.23    0.42
  YS02001590YS02001593 CONDUIT    134.02     0  02:23      0.97    0.84    0.49
  YS02001593YS02001596 CONDUIT    134.02     0  02:23      1.67    0.21    0.48
  YS02001596YS02001600 CONDUIT    135.36     0  02:25      1.09    0.26    0.94
  YS02001600YS02001601 CONDUIT    135.54     0  02:26      0.48    0.23    1.00
  YS02001601YS02001602 CONDUIT    324.57     0  02:22      1.15    1.17    1.00
  YS02001602YS02001605 CONDUIT    324.56     0  02:23      1.15    6.87    1.00
  YS02001605YS02001607 CONDUIT    324.55     0  02:23      1.15    1.78    1.00
  YS02001607YS02001610 CONDUIT    323.84     0  02:23      0.66    0.31    0.76
  YS02001610YS02001613 CONDUIT    322.94     0  02:24      0.52    0.37    0.76
  YS02001613YS02001616 CONDUIT    322.38     0  02:24      0.58    0.28    0.69
  YS02001616YS02001619 CONDUIT    322.21     0  02:24      0.65    0.56    0.64
  YS02001619YS02001622 CONDUIT    538.51     0  02:24      1.36    0.79    0.64
  YS02001622YS02001625 CONDUIT    537.79     0  02:24      0.87    0.29    0.79
  YS02001625YS02001629 CONDUIT    537.62     0  02:25      0.96    0.26    0.76
  YS02001629YS02163301 CONDUIT    538.07     0  02:25      0.76    0.66    0.97
  YS02001633YS02163601 CONDUIT    681.71     0  02:25      0.91    0.72    1.00
  YS02001641YS02001644 CONDUIT    682.01     0  02:25      0.97    2.20    1.00
  YS02001644YS02001647 CONDUIT    800.23     0  02:24      1.45    0.47    0.90
  YS02001647YS02001649 CONDUIT    799.61     0  02:25      1.95    0.42    0.90
  YS02001649YS02001757 CONDUIT    906.59     0  02:25      2.12    0.55    1.00
  YS02001652YS02001649 CONDUIT    116.57     0  02:22      1.08    0.06    0.90
  YS02001655YS02001652 CONDUIT    120.27     0  02:21      1.29    0.06    0.66
  YS02001658YS02001655 CONDUIT    120.13     0  02:21      1.50    0.05    0.40
  YS02001661YS02001658 CONDUIT    120.16     0  02:21      1.62    0.05    0.19
  YS02001664YS02001661 CONDUIT    120.18     0  02:21      1.30    0.04    0.18
  YS02001745YS02001748 CONDUIT     74.77     0  01:41      1.46    0.03    0.15
  YS02001748YS02001751 CONDUIT     74.82     0  01:41      1.23    0.04    0.40
  YS02001751YS02001754 CONDUIT     74.79     0  01:41      1.25    0.04    0.61
  YS02001754YS02001757 CONDUIT     75.03     0  01:41      0.80    0.03    0.88
  YS02001757CaochengTiaoxuchi CONDUIT   1121.45     0  02:24      2.06    0.49    1.00
  YS02001759YS02001757 CONDUIT    240.20     0  01:43      1.09    0.17    1.00
  YS02001762YS02001759 CONDUIT    142.77     0  01:44      0.71    0.16    0.99
  YS02001765YS02001762 CONDUIT    143.90     0  01:44      0.77    0.13    0.95
  YS02001767YS02001765 CONDUIT    145.99     0  01:43      0.78    0.18    0.91
  YS02001770YS02001767 CONDUIT    148.29     0  01:42      0.69    0.59    0.88
  YS02001774YS02001770 CONDUIT     31.97     0  01:06      0.54    0.02    0.90
  YS02001779YS02001774 CONDUIT     11.48     0  01:09      0.14    0.01    0.82
  YS02001783YS02001784 CONDUIT    465.87     0  01:44      1.30    0.64    0.92
  YS02001784YS02001785 CONDUIT    471.72     0  01:44      1.36    1.10    0.98
  YS02001786YS02001788 CONDUIT    489.01     0  01:44      1.81    0.94    0.97
  YS02001788YS02001790 CONDUIT    469.53     0  01:45      1.84    0.35    1.00
  YS02001790YS02001791 CONDUIT    470.29     0  01:45      2.12    0.51    1.00
  YS02001791YS02001793 CONDUIT    471.05     0  01:44      4.09    0.20    1.00
  YS02001793JiankangQianchi CONDUIT    472.31     0  01:44      2.12    0.04    1.00
  YS02001882YS02001884 CONDUIT     21.64     0  01:18      0.28    0.02    0.54
  YS02001884YS02001887 CONDUIT     31.73     0  01:15      0.22    0.04    0.63
  YS02001887YS02001890 CONDUIT    115.90     0  01:42      0.23    0.20    0.69
  YS02001890YS02001895 CONDUIT    106.32     0  02:16      0.26    0.05    0.61
  YS02001895YS02001898 CONDUIT    116.11     0  01:45      0.51    0.20    0.47
  YS02001898YS02001901 CONDUIT    121.41     0  01:45      0.46    0.08    0.56
  YS02001901YS02001904 CONDUIT    104.25     0  02:24      0.47    0.16    0.61
  YS02001904YS02001907 CONDUIT    120.36     0  01:46      0.25    0.04    0.77
  YS02001907YS02006553 CONDUIT    300.64     0  02:26      0.33    0.35    1.00
  YS02001910YS02001907 CONDUIT    213.27     0  02:24      0.49    0.12    0.83
  YS02001915YS02001910 CONDUIT    220.42     0  02:22      0.92    0.11    0.62
  YS02001918YS02001915 CONDUIT     75.08     0  02:27      0.45    0.04    0.33
  YS02001920YS02001918 CONDUIT     72.16     0  02:24      0.63    0.07    0.21
  YS02001923YS02001920 CONDUIT     69.35     0  02:22      0.65    0.03    0.19
  YS02001926YS02001923 CONDUIT     69.31     0  02:22      0.67    0.10    0.19
  YS02001929YS02001926 CONDUIT     69.33     0  02:22      0.73    0.03    0.18
  YS02006553YS02006556 CONDUIT    301.59     0  02:25      0.41    0.26    0.90
  YS02006556YS02006558 CONDUIT    301.75     0  02:27      0.40    0.24    0.93
  YS02006558YS02006561 CONDUIT    453.90     0  02:23      2.63    1.00    0.59
  YS02006561YS02001783 CONDUIT    433.38     0  02:23      1.87    0.22    0.61
  YS02163301YS02001633 CONDUIT    538.59     0  02:26      0.73    0.51    0.99
  YS02163601YS02164001 CONDUIT    681.80     0  02:25      0.92    0.60    1.00
  YS02164001YS02001641 CONDUIT    681.88     0  02:25      0.96    0.93    1.00
  CC-R1                PUMP       683.00     0  00:00              1.00
  CC-R2                PUMP       683.00     0  00:00              1.00
  CC-S1                PUMP       200.00     0  00:00              1.00
  CC-S2                PUMP       200.00     0  00:00              1.00
  JK-R1                PUMP      1000.00     0  00:00              1.00
  JK-R2                PUMP      1000.00     0  00:00              1.00
  JK-S                 PUMP       300.00     0  00:00              1.00
  XR-1                 PUMP        95.00     0  00:00              1.00
  XR-2                 PUMP        95.00     0  00:00              1.00
  XR-3                 PUMP        95.00     0  00:00              1.00
  XR-4                 PUMP        95.00     0  00:00              1.00
  
  
  ***************************
  Flow Classification Summary
  ***************************
  
  -------------------------------------------------------------------------------------
                      Adjusted    ---------- Fraction of Time in Flow Class ---------- 
                       /Actual         Up    Down  Sub   Sup   Up    Down  Norm  Inlet 
  Conduit               Length    Dry  Dry   Dry   Crit  Crit  Crit  Crit  Ltd   Ctrl  
  -------------------------------------------------------------------------------------
  1                       1.00   0.00  0.00  0.00  0.00  1.00  0.00  0.00  0.19  0.00
  WS02001211WS02001212    1.00   0.00  0.00  0.00  1.00  0.00  0.00  0.00  0.00  0.00
  WS02001212WS02001213    1.00   0.00  0.00  0.00  0.45  0.00  0.55  0.00  0.00  0.00
  WS02001213WS02003059    1.00   0.00  0.00  0.00  0.99  0.00  0.00  0.00  0.00  0.00
  WS02003059WS02003060    1.00   0.00  0.00  0.00  1.00  0.00  0.00  0.00  0.00  0.00
  WS02003060WS02003069    1.00   0.00  0.00  0.00  0.99  0.01  0.00  0.00  0.00  0.00
  WS02003066WSF200        1.00   0.02  0.10  0.00  0.00  0.88  0.00  0.00  0.86  0.00
  WS02003067WS02003066    1.00   0.10  0.02  0.00  0.89  0.00  0.00  0.00  0.00  0.00
  WS02003069WS02003072    1.00   0.00  0.00  0.00  0.99  0.01  0.00  0.00  0.00  0.00
  WS02003072WS02003073    1.00   0.00  0.00  0.00  0.00  0.00  0.00  1.00  0.00  0.00
  WS02004138WS02004139    1.00   0.00  0.00  0.00  0.99  0.01  0.00  0.00  1.00  0.00
  WS02004139WS02001211    1.00   0.00  0.00  0.00  1.00  0.00  0.00  0.00  0.00  0.00
  WS02004401WS02004402    1.00   0.02  0.00  0.00  0.98  0.00  0.00  0.00  0.00  0.00
  WS02004402WS02004403    1.00   0.02  0.00  0.00  0.98  0.00  0.00  0.00  0.00  0.00
  WS02004403WS02004404    1.00   0.00  0.03  0.00  0.97  0.00  0.00  0.00  0.00  0.00
  WS02004404WS02004405    1.00   0.00  0.00  0.00  1.00  0.00  0.00  0.00  0.00  0.00
  WS02004405WS02004406    1.00   0.00  0.00  0.00  1.00  0.00  0.00  0.00  0.00  0.00
  WS02004406WS02004407    1.00   0.00  0.05  0.00  0.95  0.00  0.00  0.00  0.00  0.00
  WS02004407WS02004409    1.00   0.05  0.00  0.00  0.94  0.01  0.00  0.00  0.94  0.00
  WS02004409WS02004410    1.00   0.05  0.00  0.00  0.95  0.00  0.00  0.00  0.03  0.00
  WS02004410WS02004411    1.00   0.05  0.00  0.00  0.95  0.00  0.00  0.00  0.00  0.00
  WS02004411WS02004412    1.00   0.05  0.00  0.00  0.95  0.00  0.00  0.00  0.00  0.00
  WS02004412WS02004413    1.00   0.05  0.00  0.00  0.94  0.00  0.00  0.00  0.01  0.00
  WS02004413WS02003067    1.00   0.06  0.04  0.00  0.00  0.00  0.90  0.00  0.00  0.00
  WS02006109WS02006110    1.00   0.00  0.01  0.00  0.98  0.00  0.01  0.00  0.00  0.00
  WS02006110WS02006113    1.00   0.01  0.01  0.00  0.98  0.00  0.00  0.00  0.00  0.00
  WS02006111WS02006112    1.00   0.02  0.00  0.00  0.98  0.00  0.00  0.00  0.98  0.00
  WS02006112WS02006115    1.00   0.02  0.00  0.00  0.97  0.00  0.00  0.00  0.00  0.00
  WS02006113WS02006111    1.00   0.02  0.00  0.00  0.00  0.98  0.00  0.00  0.15  0.00
  WS02006115WS02006116    1.00   0.02  0.00  0.00  0.97  0.00  0.00  0.01  0.00  0.00
  WS02006116WS02004401    1.00   0.02  0.00  0.00  0.98  0.00  0.00  0.00  0.00  0.00
  WS02006228WS02006109    1.00   0.00  0.00  0.00  1.00  0.00  0.00  0.00  0.00  0.00
  WS02006229WS02006228    1.00   0.00  0.00  0.00  0.99  0.00  0.00  0.01  0.00  0.00
  WS02006230WS02006229    1.00   0.00  0.00  0.00  0.99  0.00  0.00  0.01  0.00  0.00
  WS02006231WS02006230    1.00   0.00  0.00  0.00  0.28  0.00  0.72  0.00  0.00  0.00
  WS02006232WS02006231    1.00   0.00  0.00  0.00  0.99  0.00  0.01  0.00  0.00  0.00
  WS02006234WS02006232    1.00   0.00  0.00  0.00  1.00  0.00  0.00  0.00  0.41  0.00
  WS02006235WS02006234    1.00   0.00  0.00  0.00  0.55  0.00  0.45  0.00  0.00  0.00
  WS02006238WS02006235    1.00   0.00  0.00  0.00  1.00  0.00  0.00  0.00  0.00  0.00
  WS02006239WS02006238    1.00   0.00  0.00  0.00  1.00  0.00  0.00  0.00  0.50  0.00
  WS02006240WS02006239    1.00   0.00  0.00  0.00  0.46  0.00  0.00  0.53  0.02  0.00
  WS02006242WS02006240    1.00   0.00  0.00  0.00  0.99  0.00  0.01  0.00  0.00  0.00
  WS02006243WS02006242    1.00   0.00  0.00  0.00  0.99  0.00  0.00  0.01  0.60  0.00
  WS02006245WS02006243    1.00   0.00  0.00  0.00  0.52  0.00  0.00  0.48  0.00  0.00
  WS02006247WS02006245    1.00   0.00  0.00  0.00  0.99  0.00  0.00  0.01  0.00  0.00
  WS02006248WS02006247    1.00   0.00  0.00  0.00  0.99  0.00  0.00  0.01  0.15  0.00
  WS02006249WS02006248    1.00   0.00  0.00  0.00  0.39  0.00  0.61  0.00  0.00  0.00
  WS02006251WS02006249    1.00   0.00  0.00  0.00  1.00  0.00  0.00  0.00  0.61  0.00
  WS02006252WS02006251    1.00   0.01  0.64  0.00  0.00  0.00  0.35  0.00  0.00  0.00
  WS02006256WS02006235    1.00   0.00  0.00  0.00  1.00  0.00  0.00  0.00  0.00  0.00
  WSF200WS02003060        1.00   0.00  0.02  0.00  0.98  0.00  0.00  0.00  0.62  0.00
  YS02001580YS02001583    1.00   1.00  0.00  0.00  0.00  0.00  0.00  0.00  0.00  0.00
  YS02001583YS02001586    1.00   0.47  0.53  0.00  0.00  0.00  0.00  0.00  0.00  0.00
  YS02001586YS02001590    1.00   0.13  0.00  0.00  0.41  0.03  0.00  0.43  0.45  0.00
  YS02001590YS02001593    1.00   0.13  0.00  0.00  0.00  0.00  0.87  0.00  0.00  0.00
  YS02001593YS02001596    1.00   0.13  0.00  0.00  0.05  0.10  0.00  0.71  0.13  0.00
  YS02001596YS02001600    1.00   0.13  0.00  0.00  0.76  0.04  0.00  0.07  0.61  0.00
  YS02001600YS02001601    1.00   0.13  0.01  0.00  0.87  0.00  0.00  0.00  0.01  0.00
  YS02001601YS02001602    1.00   0.13  0.00  0.00  0.87  0.00  0.00  0.00  0.00  0.00
  YS02001602YS02001605    1.00   0.13  0.00  0.00  0.87  0.00  0.00  0.00  0.00  0.00
  YS02001605YS02001607    1.00   0.13  0.00  0.00  0.87  0.00  0.00  0.00  0.00  0.00
  YS02001607YS02001610    1.00   0.13  0.00  0.00  0.87  0.00  0.00  0.00  0.00  0.00
  YS02001610YS02001613    1.00   0.13  0.00  0.00  0.87  0.00  0.00  0.00  0.00  0.00
  YS02001613YS02001616    1.00   0.13  0.00  0.00  0.87  0.00  0.00  0.00  0.00  0.00
  YS02001616YS02001619    1.00   0.13  0.00  0.00  0.87  0.00  0.00  0.00  0.00  0.00
  YS02001619YS02001622    1.00   0.13  0.00  0.00  0.87  0.00  0.00  0.00  0.00  0.00
  YS02001622YS02001625    1.00   0.13  0.00  0.00  0.87  0.01  0.00  0.00  0.01  0.00
  YS02001625YS02001629    1.00   0.13  0.02  0.00  0.80  0.00  0.06  0.00  0.00  0.00
  YS02001629YS02163301    1.00   0.13  0.00  0.00  0.86  0.00  0.00  0.00  0.00  0.00
  YS02001633YS02163601    1.00   0.00  0.01  0.00  0.99  0.00  0.00  0.00  0.13  0.00
  YS02001641YS02001644    1.00   0.00  0.01  0.00  0.99  0.00  0.00  0.00  0.00  0.00
  YS02001644YS02001647    1.00   0.00  0.14  0.00  0.86  0.00  0.00  0.00  0.00  0.00
  YS02001647YS02001649    1.00   0.00  0.14  0.00  0.74  0.12  0.00  0.00  0.01  0.00
  YS02001649YS02001757    1.00   0.00  0.00  0.00  0.88  0.12  0.00  0.00  0.23  0.00
  YS02001652YS02001649    1.00   0.00  0.00  0.00  0.99  0.01  0.00  0.00  0.13  0.00
  YS02001655YS02001652    1.00   0.00  0.00  0.00  0.79  0.03  0.00  0.18  0.12  0.00
  YS02001658YS02001655    1.00   0.00  0.13  0.00  0.68  0.19  0.00  0.00  0.19  0.00
  YS02001661YS02001658    1.00   0.13  0.00  0.00  0.63  0.24  0.00  0.00  0.82  0.00
  YS02001664YS02001661    1.00   0.13  0.00  0.00  0.66  0.21  0.00  0.00  0.87  0.00
  YS02001745YS02001748    1.00   0.00  0.00  0.00  0.64  0.01  0.00  0.35  0.65  0.00
  YS02001748YS02001751    1.00   0.00  0.00  0.00  0.81  0.19  0.00  0.00  0.21  0.00
  YS02001751YS02001754    1.00   0.00  0.00  0.00  0.71  0.00  0.00  0.28  0.03  0.00
  YS02001754YS02001757    1.00   0.00  0.00  0.00  0.99  0.01  0.00  0.00  0.24  0.00
  YS02001757CaochengTiaoxuchi    1.00   0.00  0.00  0.00  1.00  0.00  0.00  0.00  0.27  0.00
  YS02001759YS02001757    1.00   0.00  0.00  0.00  0.99  0.01  0.00  0.00  0.06  0.00
  YS02001762YS02001759    1.00   0.00  0.00  0.00  1.00  0.00  0.00  0.00  0.01  0.00
  YS02001765YS02001762    1.00   0.00  0.00  0.00  1.00  0.00  0.00  0.00  0.12  0.00
  YS02001767YS02001765    1.00   0.00  0.00  0.00  1.00  0.00  0.00  0.00  0.00  0.00
  YS02001770YS02001767    1.00   0.00  0.00  0.00  1.00  0.00  0.00  0.00  0.00  0.00
  YS02001774YS02001770    1.00   0.00  0.13  0.00  0.87  0.00  0.00  0.00  0.01  0.00
  YS02001779YS02001774    1.00   0.00  0.00  0.00  1.00  0.00  0.00  0.00  0.14  0.00
  YS02001783YS02001784    1.00   0.00  0.14  0.00  0.85  0.00  0.00  0.00  0.00  0.00
  YS02001784YS02001785    1.00   0.00  0.00  0.00  1.00  0.00  0.00  0.00  0.13  0.00
  YS02001786YS02001788    1.00   0.00  0.00  0.00  0.94  0.06  0.00  0.00  0.00  0.00
  YS02001788YS02001790    1.00   0.00  0.00  0.00  0.94  0.06  0.00  0.00  0.15  0.00
  YS02001790YS02001791    1.00   0.00  0.00  0.00  0.81  0.19  0.00  0.00  0.05  0.00
  YS02001791YS02001793    1.00   0.00  0.00  0.00  0.80  0.20  0.00  0.00  0.01  0.00
  YS02001793JiankangQianchi    1.00   0.00  0.00  0.00  0.93  0.07  0.00  0.00  0.17  0.00
  YS02001882YS02001884    1.00   0.13  0.00  0.00  0.86  0.00  0.00  0.00  0.00  0.00
  YS02001884YS02001887    1.00   0.06  0.05  0.00  0.89  0.00  0.00  0.00  0.00  0.00
  YS02001887YS02001890    1.00   0.00  0.00  0.00  0.97  0.00  0.03  0.00  0.00  0.00
  YS02001890YS02001895    1.00   0.00  0.13  0.00  0.86  0.00  0.00  0.00  0.00  0.00
  YS02001895YS02001898    1.00   0.14  0.00  0.00  0.85  0.00  0.01  0.00  0.00  0.00
  YS02001898YS02001901    1.00   0.14  0.00  0.00  0.86  0.00  0.00  0.00  0.00  0.00
  YS02001901YS02001904    1.00   0.14  0.00  0.00  0.86  0.00  0.00  0.00  0.00  0.00
  YS02001904YS02001907    1.00   0.00  0.14  0.00  0.86  0.00  0.00  0.00  0.00  0.00
  YS02001907YS02006553    1.00   0.00  0.02  0.00  0.98  0.00  0.00  0.00  0.00  0.00
  YS02001910YS02001907    1.00   0.00  0.00  0.00  0.97  0.00  0.00  0.03  0.11  0.00
  YS02001915YS02001910    1.00   0.00  0.00  0.00  0.97  0.03  0.00  0.00  0.11  0.00
  YS02001918YS02001915    1.00   0.00  0.01  0.00  0.98  0.02  0.00  0.00  0.83  0.00
  YS02001920YS02001918    1.00   0.00  0.01  0.00  0.99  0.00  0.00  0.00  0.00  0.00
  YS02001923YS02001920    1.00   0.00  0.00  0.00  1.00  0.00  0.00  0.00  1.00  0.00
  YS02001926YS02001923    1.00   0.00  0.07  0.00  0.00  0.00  0.93  0.00  0.00  0.00
  YS02001929YS02001926    1.00   0.00  0.13  0.00  0.87  0.00  0.00  0.00  0.87  0.00
  YS02006553YS02006556    1.00   0.01  0.00  0.00  0.99  0.00  0.00  0.00  0.03  0.00
  YS02006556YS02006558    1.00   0.00  0.00  0.00  1.00  0.00  0.00  0.00  0.00  0.00
  YS02006558YS02006561    1.00   0.14  0.00  0.00  0.00  0.86  0.00  0.00  0.29  0.00
  YS02006561YS02001783    1.00   0.14  0.00  0.00  0.79  0.07  0.00  0.00  0.84  0.00
  YS02163301YS02001633    1.00   0.00  0.13  0.00  0.87  0.00  0.00  0.00  0.00  0.00
  YS02163601YS02164001    1.00   0.00  0.08  0.00  0.92  0.00  0.00  0.00  0.00  0.00
  YS02164001YS02001641    1.00   0.01  0.07  0.00  0.92  0.00  0.00  0.00  0.05  0.00
  
  
  *************************
  Conduit Surcharge Summary
  *************************
  
  ----------------------------------------------------------------------------
                                                           Hours        Hours 
                         --------- Hours Full --------   Above Full   Capacity
  Conduit                Both Ends  Upstream  Dnstream   Normal Flow   Limited
  ----------------------------------------------------------------------------
  WS02003072WS02003073        0.01      0.01      0.01      2.98         0.01
  WS02004404WS02004405        0.01      0.01      0.01      2.93         0.01
  WS02006109WS02006110        0.01      0.01      2.12      0.01         0.01
  WS02006110WS02006113        0.01      0.01      2.08      0.01         0.01
  WS02006111WS02006112        0.01      0.01      2.23      0.01         0.01
  WS02006228WS02006109        2.05      2.12      2.05      2.50         2.05
  WS02006229WS02006228        2.04      2.06      2.04      2.35         2.04
  WS02006230WS02006229        2.19      2.29      2.19      3.31         2.19
  WS02006231WS02006230        0.01      0.01      0.01      3.09         0.01
  WS02006232WS02006231        0.01      0.01      2.12      0.01         0.01
  WS02006234WS02006232        2.01      2.01      2.12      0.01         0.01
  WS02006235WS02006234        0.01      0.01      2.06      2.97         0.01
  WS02006238WS02006235        2.07      2.07      2.13      0.01         0.01
  WS02006239WS02006238        2.09      2.12      2.09      2.40         2.09
  WS02006240WS02006239        2.07      2.08      2.07      2.42         2.07
  WS02006242WS02006240        2.07      2.07      2.22      2.51         0.01
  WS02006243WS02006242        2.09      2.09      2.16      0.01         0.01
  WS02006245WS02006243        2.09      2.09      2.09      2.48         2.08
  WS02006247WS02006245        2.09      2.11      2.09      2.74         2.09
  WS02006248WS02006247        2.09      2.09      2.10      0.01         0.01
  WS02006249WS02006248        2.08      2.08      2.10      2.72         0.01
  WS02006251WS02006249        2.10      2.11      2.10      2.56         2.10
  WS02006252WS02006251        2.59      2.59      2.59      2.59         0.01
  WS02006256WS02006235        3.03      3.03      3.98      0.02         0.01
  YS02001596YS02001600        0.01      0.01      0.37      0.01         0.01
  YS02001600YS02001601        1.16      1.16      1.78      0.01         0.01
  YS02001601YS02001602        1.54      1.54      1.87      0.64         0.01
  YS02001602YS02001605        1.51      1.51      1.54      2.42         0.01
  YS02001605YS02001607        1.47      1.51      1.49      1.68         1.43
  YS02001633YS02163601        0.08      0.08      0.24      0.01         0.01
  YS02001641YS02001644        0.01      0.06      0.01      1.89         0.01
  YS02001644YS02001647        0.01      0.01      0.01      0.01         0.01
  YS02001647YS02001649        0.01      0.01      0.05      0.01         0.01
  YS02001649YS02001757        0.05      0.05      4.67      0.01         0.01
  YS02001652YS02001649        0.01      0.01      0.05      0.01         0.01
  YS02001754YS02001757        0.01      0.01      4.67      0.01         0.01
  YS02001757CaochengTiaoxuchi        4.67      4.67      6.02      0.01         0.01
  YS02001759YS02001757        0.09      0.09      4.67      0.01         0.01
  YS02001762YS02001759        0.01      0.01      0.09      0.01         0.01
  YS02001784YS02001785        0.01      0.01      0.01      0.09         0.01
  YS02001788YS02001790        0.01      0.01      6.31      0.01         0.01
  YS02001790YS02001791        6.31      6.31      6.33      0.01         0.01
  YS02001791YS02001793        6.33      6.33      6.38      0.01         0.01
  YS02001793JiankangQianchi        6.36      6.36      6.67      0.01         0.01
  YS02001907YS02006553        0.13      0.13      0.57      0.01         0.01
  YS02006558YS02006561        0.01      0.01      0.01      0.01         0.01
  YS02163301YS02001633        0.01      0.01      0.13      0.01         0.01
  YS02163601YS02164001        0.01      0.01      0.24      0.01         0.01
  YS02164001YS02001641        0.01      0.01      0.06      0.01         0.01
  
  
  ***************
  Pumping Summary
  ***************
  
  ---------------------------------------------------------------------------------------------------------
                                                  Min       Avg       Max     Total     Power    % Time Off
                        Percent   Number of      Flow      Flow      Flow    Volume     Usage    Pump Curve
  Pump                 Utilized   Start-Ups       LPS       LPS       LPS  10^6 ltr     Kw-hr    Low   High
  ---------------------------------------------------------------------------------------------------------
  CC-R1                    1.06           1      0.00    683.00    683.00     0.208      3.51    0.0  100.0
  CC-R2                    1.06           1      0.00    683.00    683.00     0.208      3.51    0.0  100.0
  CC-S1                   33.46           5      0.00    200.00    200.00     1.927     10.64    0.0    0.0
  CC-S2                   33.46           4      0.00    200.00    200.00     1.927     10.65    0.0    0.0
  JK-R1                    0.97           2      0.00    347.46   1000.00     0.078      0.47    0.0    0.0
  JK-R2                    0.97           2      0.00    347.46   1000.00     0.078      0.47    0.0    0.0
  JK-S                     0.97           2      0.00    104.30    300.00     0.023      0.44    0.0    0.0
  XR-1                   100.00           1      0.00     95.00     95.00     2.736     68.18    0.0    0.0
  XR-2                   100.00           1      0.00     95.00     95.00     2.736     68.18    0.0    0.0
  XR-3                   100.00           1      0.00     95.00     95.00     2.736     68.18    0.0    0.0
  XR-4                   100.00           1      0.00     95.00     95.00     2.736     68.18    0.0    0.0
  

  Analysis begun on:  Wed Nov  5 16:18:51 2025
  Analysis ended on:  Wed Nov  5 16:18:54 2025
  Total elapsed time: 00:00:03