
  EPA STORM WATER MANAGEMENT MODEL - VERSION 5.2 (Build 5.2.4)
  PYSWMM TOOLKIT API - VERSION v1.0 (2023-11-27)
  ------------------------------------------------------------

  WARNING 04: minimum elevation drop used for Conduit WS02004404WS02004405
  WARNING 03: negative offset ignored for Link YS02001904YS02001907
  
  ****************
  Analysis Options
  ****************
  Flow Units ............... LPS
  Process Models:
    Rainfall/Runoff ........ YES
    RDII ................... NO
    Snowmelt ............... NO
    Groundwater ............ NO
    Flow Routing ........... YES
    Ponding Allowed ........ NO
    Water Quality .......... NO
  Infiltration Method ...... HORTON
  Flow Routing Method ...... DYNWAVE
  Surcharge Method ......... EXTRAN
  Starting Date ............ 08/28/2015 08:00:00
  Ending Date .............. 08/28/2015 16:00:00
  Antecedent Dry Days ...... 8.0
  Report Time Step ......... 00:01:00
  Wet Time Step ............ 00:01:00
  Dry Time Step ............ 00:01:00
  Routing Time Step ........ 30.00 sec
  Variable Time Step ....... YES
  Maximum Trials ........... 8
  Number of Threads ........ 4
  Head Tolerance ........... 0.001500 m
  
  
  **************************        Volume         Depth
  Runoff Quantity Continuity     hectare-m            mm
  **************************     ---------       -------
  Initial LID Storage ......         0.049         1.488
  Total Precipitation ......         1.854        55.886
  Evaporation Loss .........         0.000         0.000
  Infiltration Loss ........         0.076         2.283
  Surface Runoff ...........         1.362        41.057
  Final Storage ............         0.466        14.057
  Continuity Error (%) .....        -0.039
  
  
  **************************        Volume        Volume
  Flow Routing Continuity        hectare-m      10^6 ltr
  **************************     ---------     ---------
  Dry Weather Inflow .......         0.602         6.020
  Wet Weather Inflow .......         1.362        13.620
  Groundwater Inflow .......         0.000         0.000
  RDII Inflow ..............         0.000         0.000
  External Inflow ..........         0.105         1.045
  External Outflow .........         1.496        14.957
  Flooding Loss ............         0.507         5.066
  Evaporation Loss .........         0.000         0.000
  Exfiltration Loss ........         0.000         0.000
  Initial Stored Volume ....         0.303         3.031
  Final Stored Volume ......         0.826         8.262
  Continuity Error (%) .....       -19.268
  
  
  *************************
  Highest Continuity Errors
  *************************
  Node YS02001774 (36.86%)
  Node WS02006256 (-6.17%)
  Node YS02001583 (-5.42%)
  Node YS02001884 (5.23%)
  Node YS02001754 (4.18%)
  
  
  ***************************
  Time-Step Critical Elements
  ***************************
  Link WS02001212WS02001213 (35.17%)
  Link WS02006238WS02006235 (20.25%)
  Link WS02006235WS02006234 (17.69%)
  Link YS02006556YS02006558 (5.54%)
  Link WS02003066WSF200 (5.52%)
  
  
  ********************************
  Highest Flow Instability Indexes
  ********************************
  Link WS02006113WS02006111 (39)
  Link WS02006238WS02006235 (34)
  Link WS02006256WS02006235 (32)
  Link WS02006111WS02006112 (28)
  Link WS02006252WS02006251 (27)
  
  
  *********************************
  Most Frequent Nonconverging Nodes
  *********************************
  Node CC-1 (13.53%)
  Node CC-2 (13.53%)
  Node JK-1 (13.53%)
  Node JK-2 (13.53%)
  Node WSC (13.53%)
  
  
  *************************
  Routing Time Step Summary
  *************************
  Minimum Time Step           :     0.01 sec
  Average Time Step           :     3.80 sec
  Maximum Time Step           :     6.46 sec
  % of Time in Steady State   :     0.00
  Average Iterations per Step :     3.59
  % of Steps Not Converging   :    13.53
  Time Step Frequencies       :
     30.000 - 13.228 sec      :     0.00 %
     13.228 -  5.833 sec      :    33.77 %
      5.833 -  2.572 sec      :    36.40 %
      2.572 -  1.134 sec      :    23.18 %
      1.134 -  0.500 sec      :     6.65 %
  
  
  ***************************
  Subcatchment Runoff Summary
  ***************************
  
  ------------------------------------------------------------------------------------------------------------------------------
                            Total      Total      Total      Total     Imperv       Perv      Total       Total     Peak  Runoff
                           Precip      Runon       Evap      Infil     Runoff     Runoff     Runoff      Runoff   Runoff   Coeff
  Subcatchment                 mm         mm         mm         mm         mm         mm         mm    10^6 ltr      LPS
  ------------------------------------------------------------------------------------------------------------------------------
  sub60                     55.89       0.00       0.00       1.35      37.03       3.82      40.85        0.54   379.53   0.731
  sub61                     55.89       0.00       0.00       2.08      37.00       5.69      42.69        0.78   553.76   0.764
  sub62                     55.89       0.00       0.00       0.92      39.44       2.60      42.04        1.15   753.89   0.752
  sub63                     55.89       0.00       0.00       3.82      31.69       9.45      41.14        0.93   626.83   0.736
  sub64                     55.89       0.00       0.00       1.83      36.08       4.70      40.78        0.98   618.95   0.730
  sub65                     55.89       0.00       0.00       1.68      38.94       4.29      43.23        1.19   724.69   0.773
  sub66                     55.89       0.00       0.00       4.48      30.63       8.37      39.01        1.82   939.41   0.698
  sub67                     55.89       0.00       0.00       0.91      40.44       2.69      43.13        0.80   588.64   0.772
  sub68                     55.89       0.00       0.00       1.60      35.71       4.37      40.08        1.10   753.87   0.717
  sub69                     55.89       0.00       0.00       1.46      37.57       5.19      42.75        1.58   937.29   0.765
  sub70                     55.89       0.00       0.00       4.93      30.09      10.63      40.72        1.18   543.63   0.729
  sub71                     55.89       0.00       0.00       0.85      35.82       2.35      38.17        1.00   625.33   0.683
  sub72                     55.89       0.00       0.00       0.81      38.69       2.18      40.87        0.56   323.54   0.731
  

  ***********************
  LID Performance Summary
  ***********************

  --------------------------------------------------------------------------------------------------------------------
                                         Total      Evap     Infil   Surface    Drain    Initial     Final  Continuity
                                        Inflow      Loss      Loss   Outflow   Outflow   Storage   Storage       Error
  Subcatchment      LID Control             mm        mm        mm        mm        mm        mm        mm           %
  --------------------------------------------------------------------------------------------------------------------
  sub60             GreenRoof            55.89      0.00      0.00      0.00      0.00      7.05     63.00       -0.10
  sub61             GreenRoof            55.89      0.00      0.00      0.00      0.00      7.05     63.00       -0.10
  sub62             GreenRoof            55.89      0.00      0.00      0.00      0.00      7.05     63.00       -0.10
  sub63             GreenRoof            55.89      0.00      0.00      0.00      0.00      7.05     63.00       -0.10
  sub64             GreenRoof            55.89      0.00      0.00      0.00      0.00      7.05     63.00       -0.10
  sub65             GreenRoof            55.89      0.00      0.00      0.00      0.00      7.05     63.00       -0.10
  sub66             GreenRoof            55.89      0.00      0.00      0.00      0.00      7.05     63.00       -0.10
  sub67             GreenRoof            55.89      0.00      0.00      0.00      0.00      7.05     63.00       -0.10
  sub68             GreenRoof            55.89      0.00      0.00      0.00      0.00      7.05     63.00       -0.10
  sub69             GreenRoof            55.89      0.00      0.00      0.00      0.00      7.05     63.00       -0.10
  sub70             GreenRoof            55.89      0.00      0.00      0.00      0.00      7.05     63.00       -0.10
  sub71             GreenRoof            55.89      0.00      0.00      0.00      0.00      7.05     63.00       -0.10
  sub72             GreenRoof            55.89      0.00      0.00      0.00      0.00      7.05     63.00       -0.10
  
  ******************
  Node Depth Summary
  ******************
  
  ---------------------------------------------------------------------------------
                                 Average  Maximum  Maximum  Time of Max    Reported
                                   Depth    Depth      HGL   Occurrence   Max Depth
  Node                 Type       Meters   Meters   Meters  days hr:min      Meters
  ---------------------------------------------------------------------------------
  WS02001211           JUNCTION     0.76     0.78     5.62     0  02:57        0.78
  WS02001212           JUNCTION     0.46     0.49     5.55     0  02:57        0.49
  WS02001213           JUNCTION     0.68     0.73     5.49     0  02:56        0.73
  WS02003059           JUNCTION     0.73     0.78     5.47     0  02:56        0.78
  WS02003060           JUNCTION     0.38     0.47     5.41     0  02:55        0.47
  WS02003066           JUNCTION     0.16     0.27     5.82     0  02:55        0.27
  WS02003067           JUNCTION     0.43     0.65     5.97     0  02:54        0.65
  WS02003069           JUNCTION     0.42     0.54     5.12     0  02:56        0.54
  WS02003072           JUNCTION     0.49     0.60     4.97     0  02:56        0.60
  WS02003073           JUNCTION     0.29     0.37     4.43     0  02:57        0.37
  WS02004138           JUNCTION     0.19     0.20     7.45     0  00:00        0.19
  WS02004139           JUNCTION     0.71     0.73     5.64     0  02:58        0.73
  WS02004401           JUNCTION     0.51     0.75     6.75     0  02:55        0.75
  WS02004402           JUNCTION     0.54     0.78     6.74     0  02:55        0.78
  WS02004403           JUNCTION     0.57     0.80     6.73     0  02:52        0.80
  WS02004404           JUNCTION     0.64     0.88     6.73     0  02:56        0.88
  WS02004405           JUNCTION     0.64     0.88     6.73     0  02:56        0.87
  WS02004406           JUNCTION     0.65     0.88     6.71     0  02:52        0.88
  WS02004407           JUNCTION     0.13     0.26     6.57     0  02:53        0.26
  WS02004409           JUNCTION     0.30     0.58     6.35     0  02:53        0.58
  WS02004410           JUNCTION     0.33     0.59     6.31     0  02:53        0.59
  WS02004411           JUNCTION     0.35     0.61     6.29     0  02:54        0.61
  WS02004412           JUNCTION     0.38     0.62     6.26     0  02:54        0.62
  WS02004413           JUNCTION     0.53     0.79     6.26     0  02:54        0.79
  WS02006109           JUNCTION     0.56     0.84     7.45     0  02:11        0.83
  WS02006110           JUNCTION     0.57     0.82     7.41     0  02:45        0.82
  WS02006111           JUNCTION     0.14     0.25     6.96     0  02:37        0.25
  WS02006112           JUNCTION     0.66     0.93     6.82     0  02:37        0.93
  WS02006113           JUNCTION     0.21     0.39     7.29     0  02:33        0.39
  WS02006115           JUNCTION     0.39     0.65     6.78     0  02:55        0.65
  WS02006116           JUNCTION     0.48     0.73     6.77     0  02:55        0.73
  WS02006228           JUNCTION     0.55     0.85     7.50     0  02:11        0.85
  WS02006229           JUNCTION     0.52     0.83     7.52     0  02:10        0.83
  WS02006230           JUNCTION     0.50     0.86     7.60     0  02:45        0.86
  WS02006231           JUNCTION     0.30     0.60     7.72     0  02:45        0.60
  WS02006232           JUNCTION     0.42     0.75     7.79     0  02:45        0.75
  WS02006234           JUNCTION     0.34     0.71     7.87     0  02:45        0.71
  WS02006235           JUNCTION     0.37     0.76     7.93     0  02:12        0.76
  WS02006238           JUNCTION     0.40     0.81     7.95     0  02:54        0.80
  WS02006239           JUNCTION     0.37     0.81     8.02     0  02:11        0.80
  WS02006240           JUNCTION     0.36     0.79     8.08     0  02:08        0.79
  WS02006242           JUNCTION     0.42     0.90     8.17     0  02:10        0.90
  WS02006243           JUNCTION     0.36     0.84     8.26     0  02:46        0.84
  WS02006245           JUNCTION     0.37     0.86     8.34     0  03:22        0.85
  WS02006247           JUNCTION     0.39     0.89     8.39     0  02:54        0.89
  WS02006248           JUNCTION     0.36     0.86     8.45     0  02:41        0.85
  WS02006249           JUNCTION     0.38     0.90     8.49     0  02:05        0.90
  WS02006251           JUNCTION     0.38     0.91     8.58     0  02:43        0.91
  WS02006252           JUNCTION     0.26     1.50     9.74     0  00:00        0.71
  WS02006256           JUNCTION     0.61     2.35     9.28     0  00:00        2.35
  WSF200               JUNCTION     0.13     0.25     5.48     0  02:55        0.25
  YS02001580           JUNCTION     0.08     1.05     9.59     0  02:07        0.77
  YS02001583           JUNCTION     0.11     1.02     9.52     0  02:07        0.82
  YS02001586           JUNCTION     0.20     1.13     9.30     0  02:07        1.13
  YS02001590           JUNCTION     0.30     1.39     9.25     0  02:07        1.39
  YS02001593           JUNCTION     0.23     1.32     9.18     0  02:07        1.32
  YS02001596           JUNCTION     0.49     1.67     9.09     0  02:07        1.67
  YS02001600           JUNCTION     0.71     1.87     9.00     0  02:09        1.86
  YS02001601           JUNCTION     0.96     2.06     8.90     0  02:06        2.06
  YS02001602           JUNCTION     0.87     1.87     8.77     0  02:06        1.87
  YS02001605           JUNCTION     0.84     1.78     8.68     0  02:09        1.78
  YS02001607           JUNCTION     0.83     1.68     8.53     0  02:09        1.68
  YS02001610           JUNCTION     0.87     1.68     8.48     0  02:09        1.68
  YS02001613           JUNCTION     0.83     1.70     8.54     0  02:09        1.70
  YS02001616           JUNCTION     0.76     1.61     8.52     0  02:09        1.61
  YS02001619           JUNCTION     0.75     1.61     8.54     0  02:09        1.61
  YS02001622           JUNCTION     0.75     1.57     8.47     0  02:10        1.57
  YS02001625           JUNCTION     1.00     1.78     8.38     0  02:09        1.78
  YS02001629           JUNCTION     1.02     1.85     8.40     0  02:09        1.85
  YS02001633           JUNCTION     1.09     2.08     8.53     0  02:09        2.08
  YS02001641           JUNCTION     1.08     2.10     8.54     0  02:09        2.10
  YS02001644           JUNCTION     1.07     1.92     8.35     0  02:09        1.92
  YS02001647           JUNCTION     0.88     1.74     8.35     0  02:13        1.74
  YS02001649           JUNCTION     1.03     1.95     8.34     0  02:12        1.94
  YS02001652           JUNCTION     0.86     1.81     8.41     0  02:12        1.76
  YS02001655           JUNCTION     0.68     1.65     8.50     0  02:11        1.55
  YS02001658           JUNCTION     0.48     1.55     8.69     0  02:11        1.30
  YS02001661           JUNCTION     0.32     1.22     8.63     0  02:12        1.07
  YS02001664           JUNCTION     0.06     0.55     8.47     0  02:12        0.48
  YS02001745           JUNCTION     0.21     0.73     8.25     0  02:12        0.68
  YS02001748           JUNCTION     0.51     1.46     8.54     0  02:12        1.13
  YS02001751           JUNCTION     0.64     1.50     8.38     0  02:12        1.33
  YS02001754           JUNCTION     0.83     1.64     8.25     0  02:12        1.61
  YS02001757           JUNCTION     1.11     1.95     8.21     0  02:13        1.95
  YS02001759           JUNCTION     1.03     1.94     8.30     0  02:13        1.94
  YS02001762           JUNCTION     1.00     1.92     8.32     0  02:13        1.92
  YS02001765           JUNCTION     0.96     1.89     8.34     0  02:13        1.89
  YS02001767           JUNCTION     0.94     1.88     8.36     0  02:13        1.87
  YS02001770           JUNCTION     0.95     1.91     8.40     0  02:12        1.89
  YS02001774           JUNCTION     1.01     1.97     8.40     0  02:12        1.97
  YS02001779           JUNCTION     0.78     1.68     8.37     0  02:10        1.68
  YS02001783           JUNCTION     0.48     2.12     8.26     0  02:09        2.12
  YS02001784           JUNCTION     0.52     2.29     8.36     0  02:09        2.29
  YS02001786           JUNCTION     0.52     2.23     8.26     0  02:09        2.23
  YS02001788           JUNCTION     0.52     2.28     8.26     0  02:09        2.28
  YS02001790           JUNCTION     0.75     1.96     7.60     0  02:09        1.96
  YS02001791           JUNCTION     0.84     2.37     7.84     0  02:09        2.37
  YS02001793           JUNCTION     1.28     2.44     7.27     0  02:09        2.44
  YS02001882           JUNCTION     0.31     1.83     8.55     0  02:10        1.83
  YS02001884           JUNCTION     0.39     1.93     8.55     0  02:10        1.93
  YS02001887           JUNCTION     0.47     1.96     8.50     0  02:10        1.96
  YS02001890           JUNCTION     0.50     1.81     8.32     0  02:10        1.81
  YS02001895           JUNCTION     0.28     1.71     8.46     0  02:10        1.71
  YS02001898           JUNCTION     0.28     1.77     8.51     0  02:10        1.77
  YS02001901           JUNCTION     0.39     1.87     8.48     0  02:09        1.87
  YS02001904           JUNCTION     0.37     1.85     8.48     0  02:09        1.85
  YS02001907           JUNCTION     0.68     1.96     8.25     0  02:09        1.96
  YS02001910           JUNCTION     0.49     2.10     8.61     0  02:09        2.10
  YS02001915           JUNCTION     0.31     1.92     8.64     0  02:10        1.67
  YS02001918           JUNCTION     0.16     1.81     8.88     0  02:10        1.34
  YS02001920           JUNCTION     0.24     2.06     9.07     0  02:10        1.41
  YS02001923           JUNCTION     0.12     2.00     9.26     0  02:10        1.26
  YS02001926           JUNCTION     0.15     1.90     9.35     0  02:10        1.14
  YS02001929           JUNCTION     0.08     1.78     9.47     0  02:10        1.01
  YS02006553           JUNCTION     0.69     2.19     8.47     0  02:09        2.19
  YS02006556           JUNCTION     0.66     2.39     8.70     0  02:09        2.39
  YS02006558           JUNCTION     0.70     2.50     8.77     0  02:09        2.50
  YS02006561           JUNCTION     0.17     1.60     8.26     0  02:09        1.30
  YS02163301           JUNCTION     1.04     2.03     8.55     0  02:09        2.03
  YS02163601           JUNCTION     1.13     2.08     8.48     0  02:09        2.08
  YS02164001           JUNCTION     1.06     2.10     8.56     0  02:09        2.10
  CC-1                 OUTFALL      0.00     0.00     0.00     0  00:00        0.00
  CC-2                 OUTFALL      0.00     0.00     0.00     0  00:00        0.00
  JK-1                 OUTFALL      0.00     0.00     0.00     0  00:00        0.00
  JK-2                 OUTFALL      0.00     0.00     0.00     0  00:00        0.00
  WSC                  OUTFALL      0.29     0.37     1.04     0  02:57        0.37
  CC-storage           STORAGE      1.68     2.30     7.80     0  03:01        2.30
  JK-storage           STORAGE      4.40     5.80     6.60     0  02:03        5.80
  XR-storage           STORAGE      0.31     5.00     3.00     0  00:00        4.91
  
  
  *******************
  Node Inflow Summary
  *******************
  
  -------------------------------------------------------------------------------------------------
                                  Maximum  Maximum                  Lateral       Total        Flow
                                  Lateral    Total  Time of Max      Inflow      Inflow     Balance
                                   Inflow   Inflow   Occurrence      Volume      Volume       Error
  Node                 Type           LPS      LPS  days hr:min    10^6 ltr    10^6 ltr     Percent
  -------------------------------------------------------------------------------------------------
  WS02001211           JUNCTION      7.35   389.12     0  03:38       0.212        11.1       0.348
  WS02001212           JUNCTION      0.00   390.85     0  03:41           0        11.1       0.207
  WS02001213           JUNCTION      0.00   392.61     0  03:40           0        11.1       0.238
  WS02003059           JUNCTION      0.00   395.63     0  03:39           0          11       0.328
  WS02003060           JUNCTION     16.53   816.11     0  02:55       0.476        14.4       0.150
  WS02003066           JUNCTION      0.00   411.93     0  02:55           0        2.96       0.040
  WS02003067           JUNCTION      0.00   411.93     0  02:54           0        2.97       0.135
  WS02003069           JUNCTION      0.32   816.40     0  02:55     0.00922        14.4       0.158
  WS02003072           JUNCTION      0.00   816.38     0  02:56           0        14.4       0.206
  WS02003073           JUNCTION      1.82   818.19     0  02:56      0.0524        14.4       0.221
  WS02004138           JUNCTION      0.00   380.00     0  00:00           0        10.9       0.059
  WS02004139           JUNCTION      0.32   395.52     0  00:00     0.00924        10.9       0.407
  WS02004401           JUNCTION      0.00   412.28     0  02:55           0        3.06       0.324
  WS02004402           JUNCTION      0.00   412.15     0  02:52           0        3.05       0.330
  WS02004403           JUNCTION      0.00   412.21     0  02:56           0        3.04       0.324
  WS02004404           JUNCTION      0.16   412.22     0  02:52     0.00467        3.04       0.271
  WS02004405           JUNCTION      0.04   412.28     0  02:52      0.0011        3.03       0.404
  WS02004406           JUNCTION      0.00   412.32     0  02:56           0        3.02       0.677
  WS02004407           JUNCTION      0.00   412.16     0  02:53           0           3       0.030
  WS02004409           JUNCTION      0.00   412.10     0  02:53           0           3       0.072
  WS02004410           JUNCTION      0.00   412.07     0  02:53           0        2.99       0.130
  WS02004411           JUNCTION      0.00   412.03     0  02:53           0        2.99       0.170
  WS02004412           JUNCTION      0.00   412.01     0  02:54           0        2.98       0.234
  WS02004413           JUNCTION      0.00   411.99     0  02:54           0        2.98       0.421
  WS02006109           JUNCTION      1.23   412.45     0  02:11      0.0354         3.1       0.191
  WS02006110           JUNCTION      0.00   411.80     0  02:11           0         3.1       0.200
  WS02006111           JUNCTION      0.00   423.56     0  02:33           0        3.09       0.030
  WS02006112           JUNCTION      0.00   413.87     0  02:37           0        3.09       0.565
  WS02006113           JUNCTION      0.00   411.93     0  02:51           0        3.09       0.042
  WS02006115           JUNCTION      0.00   412.35     0  02:37           0        3.07       0.202
  WS02006116           JUNCTION      0.00   412.40     0  02:55           0        3.07       0.148
  WS02006228           JUNCTION      0.00   412.46     0  02:12           0        3.07       0.048
  WS02006229           JUNCTION      0.00   410.75     0  02:11           0        3.07       0.160
  WS02006230           JUNCTION     10.28   410.58     0  02:45       0.296        3.08       0.180
  WS02006231           JUNCTION      0.00   400.38     0  02:45           0        2.78      -0.085
  WS02006232           JUNCTION      0.00   400.38     0  02:45           0        2.79       0.296
  WS02006234           JUNCTION      0.00   401.33     0  02:11           0        2.78      -0.197
  WS02006235           JUNCTION      0.00   402.22     0  02:37           0         2.8       0.262
  WS02006238           JUNCTION      0.00   401.47     0  02:54           0        2.77      -0.375
  WS02006239           JUNCTION      0.00   401.40     0  02:09           0        2.76      -0.251
  WS02006240           JUNCTION      0.00   400.87     0  02:37           0        2.75      -0.117
  WS02006242           JUNCTION      0.00   401.75     0  02:42           0        2.75      -0.021
  WS02006243           JUNCTION      0.00   400.98     0  02:37           0        2.75      -0.089
  WS02006245           JUNCTION      0.00   403.37     0  02:34           0        2.76       0.515
  WS02006247           JUNCTION      0.00   401.39     0  02:09           0        2.76       0.016
  WS02006248           JUNCTION      0.00   401.83     0  02:09           0        2.77       0.117
  WS02006249           JUNCTION      0.00   462.97     0  01:46           0        2.78       0.354
  WS02006251           JUNCTION      0.08   402.91     0  01:45     0.00222        2.78       0.004
  WS02006252           JUNCTION      0.00   400.00     0  00:00           0        2.77      -0.059
  WS02006256           JUNCTION      0.00   300.00     0  00:00           0      0.0242      -5.815
  WSF200               JUNCTION      0.00   411.93     0  02:55           0        2.96       0.018
  YS02001580           JUNCTION      0.00   123.31     0  02:07           0     0.00418      -1.779
  YS02001583           JUNCTION      0.00   156.96     0  02:06           0      0.0151      -5.137
  YS02001586           JUNCTION    543.63   543.66     0  02:15        1.18        1.19       0.110
  YS02001590           JUNCTION      0.00   317.95     0  02:16           0        1.04       0.038
  YS02001593           JUNCTION      0.00   318.07     0  02:25           0        1.04       0.050
  YS02001596           JUNCTION      0.00   317.95     0  02:13           0        1.04       0.368
  YS02001600           JUNCTION      0.00   318.11     0  02:16           0        1.04       0.801
  YS02001601           JUNCTION    937.29  1254.54     0  02:14        1.58        2.62       0.343
  YS02001602           JUNCTION      0.00   510.42     0  02:06           0        1.84       0.509
  YS02001605           JUNCTION      0.00   510.15     0  02:06           0        1.75       0.810
  YS02001607           JUNCTION      0.00   510.02     0  02:06           0        1.74       1.246
  YS02001610           JUNCTION      0.00   509.08     0  02:05           0        1.74       1.341
  YS02001613           JUNCTION      0.00   509.43     0  02:05           0        1.47       1.672
  YS02001616           JUNCTION      0.00   506.47     0  02:06           0        1.45       1.520
  YS02001619           JUNCTION    939.41   939.41     0  02:15        1.82        3.23       0.673
  YS02001622           JUNCTION      0.00   941.19     0  02:09           0        3.18       0.933
  YS02001625           JUNCTION      0.00  1030.13     0  02:15           0        3.19       1.427
  YS02001629           JUNCTION      0.00   942.52     0  02:09           0        2.62       0.888
  YS02001633           JUNCTION    724.89  1386.22     0  02:09         1.2        3.72       0.864
  YS02001641           JUNCTION      0.00  1435.33     0  02:09           0        3.61       0.571
  YS02001644           JUNCTION    618.99  1846.20     0  02:09       0.981        4.57       0.565
  YS02001647           JUNCTION      0.00  1862.89     0  02:09           0        4.47       0.624
  YS02001649           JUNCTION      0.00  2007.74     0  02:09           0        5.34       0.703
  YS02001652           JUNCTION      0.00   745.17     0  02:13           0       0.936       2.522
  YS02001655           JUNCTION      0.15   743.57     0  02:13     0.00443       0.956       2.457
  YS02001658           JUNCTION      0.00   742.00     0  02:13           0       0.966       1.627
  YS02001661           JUNCTION      0.00   754.46     0  02:12           0       0.954       0.737
  YS02001664           JUNCTION    626.83   626.83     0  02:13       0.934       0.934      -0.037
  YS02001745           JUNCTION    379.53   379.53     0  02:13       0.537       0.591       0.892
  YS02001748           JUNCTION      0.04   510.45     0  02:12      0.0013       0.608       2.300
  YS02001751           JUNCTION      0.01   421.53     0  02:12    0.000317       0.566       3.930
  YS02001754           JUNCTION      0.26   422.05     0  02:12     0.00749       0.558       4.365
  YS02001757           JUNCTION      0.00  3249.08     0  02:12           0        7.58       1.249
  YS02001759           JUNCTION    553.80  1258.51     0  02:14       0.785        1.82       1.278
  YS02001762           JUNCTION      0.00   736.69     0  02:14           0        1.05       2.027
  YS02001765           JUNCTION      0.00   735.23     0  02:14           0        1.07       2.333
  YS02001767           JUNCTION      0.54   734.25     0  02:14      0.0154        1.11       3.308
  YS02001770           JUNCTION    754.05   754.05     0  02:13        1.16        1.18       2.740
  YS02001774           JUNCTION      0.00   348.62     0  02:10           0      0.0671      58.373
  YS02001779           JUNCTION      0.01   359.46     0  02:10    0.000144      0.0289      99.610
  YS02001783           JUNCTION      0.00   976.16     0  02:12           0        2.93       0.228
  YS02001784           JUNCTION      1.06   976.89     0  02:12      0.0305        2.95       0.350
  YS02001786           JUNCTION      0.06   976.59     0  02:11     0.00162        2.94       0.442
  YS02001788           JUNCTION      0.07   976.86     0  02:13     0.00204        2.93       0.462
  YS02001790           JUNCTION      0.15   977.29     0  02:11     0.00446        2.92       0.579
  YS02001791           JUNCTION      0.00   977.36     0  02:11           0         2.9       0.480
  YS02001793           JUNCTION      0.00   978.01     0  02:12           0        2.89       0.515
  YS02001882           JUNCTION      0.00    54.64     0  02:08           0       0.013       5.452
  YS02001884           JUNCTION      0.00    93.58     0  02:08           0      0.0491       5.524
  YS02001887           JUNCTION    589.09   589.20     0  02:13       0.815       0.849       0.528
  YS02001890           JUNCTION      0.00   588.50     0  02:13           0       0.807       0.636
  YS02001895           JUNCTION      0.00   513.56     0  02:14           0       0.785       0.189
  YS02001898           JUNCTION      0.00   513.89     0  02:15           0       0.784       0.013
  YS02001901           JUNCTION      0.00   514.49     0  02:14           0       0.787       0.403
  YS02001904           JUNCTION      0.00   513.32     0  02:15           0       0.791       0.337
  YS02001907           JUNCTION      0.00  1502.86     0  02:14           0        2.43       0.730
  YS02001910           JUNCTION      0.00   990.25     0  02:14           0        1.65       0.414
  YS02001915           JUNCTION    625.35   989.67     0  02:14       0.999        1.69       0.113
  YS02001918           JUNCTION      0.00   544.41     0  02:09           0        0.72       0.002
  YS02001920           JUNCTION      2.87   461.26     0  02:11      0.0827       0.702       0.091
  YS02001923           JUNCTION      0.04   534.82     0  02:09     0.00109       0.602      -0.201
  YS02001926           JUNCTION      0.05   851.36     0  02:10      0.0015       0.582       0.147
  YS02001929           JUNCTION    323.54   497.16     0  02:10       0.562       0.566      -0.278
  YS02006553           JUNCTION      0.00   675.30     0  02:25           0        1.84       0.640
  YS02006556           JUNCTION      0.00   676.26     0  02:25           0        1.85       0.388
  YS02006558           JUNCTION    754.75   976.51     0  02:12        1.13        2.95       0.106
  YS02006561           JUNCTION      0.00   976.16     0  02:12           0        2.93      -0.020
  YS02163301           JUNCTION      0.00   944.28     0  02:09           0        2.59       0.928
  YS02163601           JUNCTION      0.11  1386.87     0  02:09     0.00317        3.65       0.816
  YS02164001           JUNCTION      0.00  1385.29     0  02:09           0        3.62       0.526
  CC-1                 OUTFALL       0.00   683.00     0  00:00           0       0.208       0.000
  CC-2                 OUTFALL       0.00   683.00     0  00:00           0       0.208       0.000
  JK-1                 OUTFALL       0.00  1000.00     0  00:00           0      0.0791       0.000
  JK-2                 OUTFALL       0.00  1000.00     0  00:00           0      0.0791       0.000
  WSC                  OUTFALL       0.00   818.17     0  02:57           0        14.4       0.000
  CC-storage           STORAGE       0.00  3250.63     0  02:13           0        9.66       0.462
  JK-storage           STORAGE       0.00   977.99     0  02:11           0        3.03       0.540
  XR-storage           STORAGE     200.00   200.00     0  00:00        5.76        6.36     -41.886
  
  
  **********************
  Node Surcharge Summary
  **********************
  
  Surcharging occurs when water rises above the top of the highest conduit.
  ---------------------------------------------------------------------
                                               Max. Height   Min. Depth
                                   Hours       Above Crown    Below Rim
  Node                 Type      Surcharged         Meters       Meters
  ---------------------------------------------------------------------
  WS02006109           JUNCTION        1.45          0.017        1.803
  WS02006228           JUNCTION        1.44          0.020        2.180
  WS02006229           JUNCTION        1.46          0.029        2.421
  WS02006232           JUNCTION        1.52          0.051        1.429
  WS02006235           JUNCTION        1.46          0.055        1.235
  WS02006238           JUNCTION        1.49          0.089        1.341
  WS02006239           JUNCTION        1.46          0.066        1.224
  WS02006240           JUNCTION        1.47          0.079        1.311
  WS02006242           JUNCTION        1.56          0.174        0.646
  WS02006243           JUNCTION        1.48          0.132        0.638
  WS02006245           JUNCTION        1.48          0.146        0.704
  WS02006247           JUNCTION        1.50          0.182        0.578
  WS02006248           JUNCTION        1.48          0.138        0.242
  WS02006249           JUNCTION        1.50          0.196        0.194
  WS02006252           JUNCTION        1.93          1.100        0.000
  WS02006256           JUNCTION        3.00          2.050        0.000
  YS02001580           JUNCTION        0.41          0.450        0.000
  YS02001583           JUNCTION        0.42          0.383        0.117
  YS02001586           JUNCTION        0.57          0.510        0.000
  YS02001590           JUNCTION        0.66          0.740        0.010
  YS02001593           JUNCTION        0.67          0.698        0.142
  YS02001596           JUNCTION        0.83          0.941        0.129
  YS02001600           JUNCTION        1.27          1.187        0.003
  YS02001601           JUNCTION        6.17          1.440        0.000
  YS02001602           JUNCTION        6.11          1.270        0.000
  YS02001605           JUNCTION        6.09          1.180        0.000
  YS02001607           JUNCTION        0.97          0.680        0.000
  YS02001610           JUNCTION        1.20          0.680        0.000
  YS02001613           JUNCTION        0.98          0.700        0.000
  YS02001616           JUNCTION        0.85          0.610        0.000
  YS02001619           JUNCTION        0.80          0.610        0.000
  YS02001622           JUNCTION        0.86          0.566        0.054
  YS02001625           JUNCTION        5.93          0.780        0.000
  YS02001629           JUNCTION        0.74          0.470        0.000
  YS02001633           JUNCTION        5.94          1.060        0.000
  YS02001641           JUNCTION        5.91          1.100        0.000
  YS02001644           JUNCTION        5.90          0.920        0.000
  YS02001647           JUNCTION        5.84          0.738        0.162
  YS02001649           JUNCTION        5.85          0.949        0.101
  YS02001652           JUNCTION        5.83          0.785        0.345
  YS02001655           JUNCTION        0.48          0.650        0.550
  YS02001658           JUNCTION        0.10          0.549        0.751
  YS02001661           JUNCTION        0.01          0.153        1.237
  YS02001748           JUNCTION        0.04          0.383        0.807
  YS02001751           JUNCTION        0.18          0.504        0.696
  YS02001754           JUNCTION        5.82          0.591        0.559
  YS02001757           JUNCTION        5.84          0.951        0.259
  YS02001759           JUNCTION        5.84          0.938        0.272
  YS02001762           JUNCTION        5.83          0.921        0.229
  YS02001765           JUNCTION        5.83          0.886        0.214
  YS02001767           JUNCTION        5.83          0.876        0.154
  YS02001770           JUNCTION        5.83          0.879        0.041
  YS02001774           JUNCTION        5.83          0.974        0.076
  YS02001779           JUNCTION        5.82          0.680        0.000
  YS02001783           JUNCTION        0.57          1.317        0.283
  YS02001784           JUNCTION        0.57          1.490        0.000
  YS02001786           JUNCTION        0.57          1.430        0.000
  YS02001788           JUNCTION        0.57          1.480        0.000
  YS02001790           JUNCTION        5.95          1.157        0.000
  YS02001791           JUNCTION        5.96          1.567        0.353
  YS02001793           JUNCTION        5.99          1.436        1.164
  YS02001882           JUNCTION        0.37          0.830        0.000
  YS02001884           JUNCTION        0.38          0.870        0.000
  YS02001887           JUNCTION        0.41          0.914        0.036
  YS02001890           JUNCTION        0.42          0.760        0.000
  YS02001895           JUNCTION        0.36          0.710        0.040
  YS02001898           JUNCTION        0.35          0.740        0.000
  YS02001901           JUNCTION        0.40          0.870        0.000
  YS02001904           JUNCTION        0.39          0.850        0.000
  YS02001907           JUNCTION        0.59          0.950        0.000
  YS02001910           JUNCTION        0.44          1.100        0.000
  YS02001915           JUNCTION        0.37          0.918        0.082
  YS02001918           JUNCTION        0.29          0.810        0.000
  YS02001920           JUNCTION        0.30          1.065        0.075
  YS02001923           JUNCTION        0.01          0.788        0.032
  YS02001926           JUNCTION        0.02          0.900        0.000
  YS02001929           JUNCTION        0.01          0.780        0.000
  YS02006553           JUNCTION        0.60          1.190        0.000
  YS02006556           JUNCTION        0.52          1.350        0.000
  YS02006558           JUNCTION        0.51          1.400        0.000
  YS02006561           JUNCTION        0.32          0.803        0.347
  YS02163301           JUNCTION        5.93          1.030        0.000
  YS02163601           JUNCTION        5.95          1.080        0.000
  YS02164001           JUNCTION        5.92          1.100        0.000
  
  
  *********************
  Node Flooding Summary
  *********************
  
  Flooding refers to all water that overflows a node, whether it ponds or not.
  --------------------------------------------------------------------------
                                                             Total   Maximum
                                 Maximum   Time of Max       Flood    Ponded
                        Hours       Rate    Occurrence      Volume     Depth
  Node                 Flooded       LPS   days hr:min    10^6 ltr    Meters
  --------------------------------------------------------------------------
  WS02006252              0.01    245.63      0  00:00       0.000     0.000
  WS02006256              0.02    293.19      0  00:00       0.005     0.000
  YS02001580              0.01    100.40      0  02:07       0.000     0.000
  YS02001586              0.31    226.24      0  02:15       0.135     0.000
  YS02001601              0.50    856.58      0  02:14       0.764     0.000
  YS02001602              0.46     62.04      0  02:17       0.086     0.000
  YS02001605              0.01      0.39      0  02:11       0.000     0.000
  YS02001607              0.01      0.11      0  02:09       0.000     0.000
  YS02001610              0.36    426.79      0  02:15       0.285     0.000
  YS02001613              0.01      1.01      0  02:09       0.000     0.000
  YS02001616              0.01      1.08      0  02:09       0.000     0.000
  YS02001619              0.01      4.40      0  02:09       0.000     0.000
  YS02001625              0.35   1030.05      0  02:15       0.565     0.000
  YS02001629              0.06    130.81      0  02:13       0.016     0.000
  YS02001633              0.01      1.73      0  02:09       0.000     0.000
  YS02001641              0.01      0.73      0  02:09       0.000     0.000
  YS02001644              0.08    399.01      0  02:13       0.061     0.000
  YS02001779              0.04    266.04      0  02:10       0.007     0.000
  YS02001784              0.01      1.33      0  02:09       0.000     0.000
  YS02001786              0.01      1.69      0  02:09       0.000     0.000
  YS02001788              0.01      1.41      0  02:09       0.000     0.000
  YS02001790              0.01      2.33      0  02:09       0.000     0.000
  YS02001882              0.01      9.51      0  02:10       0.000     0.000
  YS02001884              0.01      8.62      0  02:10       0.000     0.000
  YS02001890              0.08     97.44      0  02:10       0.017     0.000
  YS02001898              0.01     11.34      0  02:10       0.000     0.000
  YS02001901              0.01      5.60      0  02:10       0.000     0.000
  YS02001904              0.01      3.80      0  02:09       0.000     0.000
  YS02001907              0.23   1243.97      0  02:14       0.578     0.000
  YS02001910              0.01      1.55      0  02:09       0.000     0.000
  YS02001918              0.01    112.59      0  02:10       0.001     0.000
  YS02001926              0.01    123.44      0  02:10       0.001     0.000
  YS02001929              0.01    234.05      0  02:10       0.001     0.000
  YS02006553              0.01      3.39      0  02:09       0.000     0.000
  YS02006556              0.01      5.53      0  02:09       0.000     0.000
  YS02006558              0.01      2.84      0  02:09       0.000     0.000
  YS02163301              0.01      0.98      0  02:09       0.000     0.000
  YS02163601              0.01      0.57      0  02:09       0.000     0.000
  YS02164001              0.01      2.07      0  02:09       0.000     0.000
  CC-storage              0.05     96.19      0  03:01       0.008     0.000
  JK-storage              5.95    977.33      0  02:11       2.536     0.000
  
  
  **********************
  Storage Volume Summary
  **********************
  
  ------------------------------------------------------------------------------------------------
                         Average    Avg   Evap  Exfil     Maximum    Max    Time of Max    Maximum
                          Volume   Pcnt   Pcnt   Pcnt      Volume   Pcnt     Occurrence    Outflow
  Storage Unit           1000 m³   Full   Loss   Loss     1000 m³   Full    days hr:min        LPS
  ------------------------------------------------------------------------------------------------
  CC-storage               4.679   73.0    0.0    0.0       6.410  100.0       0  03:01    1783.53
  JK-storage               0.221   75.9    0.0    0.0       0.291  100.0       0  02:03    2300.00
  XR-storage               0.037    2.5    0.0    0.0       0.600   41.7       0  00:00     380.00
  
  
  ***********************
  Outfall Loading Summary
  ***********************
  
  -----------------------------------------------------------
                         Flow       Avg       Max       Total
                         Freq      Flow      Flow      Volume
  Outfall Node           Pcnt       LPS       LPS    10^6 ltr
  -----------------------------------------------------------
  CC-1                   1.34    683.00    683.00       0.208
  CC-2                   1.34    683.00    683.00       0.208
  JK-1                   1.25    347.46   1000.00       0.079
  JK-2                   1.25    347.46   1000.00       0.079
  WSC                   99.92    556.75    818.17      14.382
  -----------------------------------------------------------
  System                21.02   2617.67   3366.35      14.957
  
  
  ********************
  Link Flow Summary
  ********************
  
  -----------------------------------------------------------------------------
                                 Maximum  Time of Max   Maximum    Max/    Max/
                                  |Flow|   Occurrence   |Veloc|    Full    Full
  Link                 Type          LPS  days hr:min     m/sec    Flow   Depth
  -----------------------------------------------------------------------------
  1                    CONDUIT    818.17     0  02:57      3.15    0.28    0.37
  WS02001211WS02001212 CONDUIT    390.85     0  03:41      0.78    0.30    0.64
  WS02001212WS02001213 CONDUIT    392.61     0  03:40      1.32    0.61    0.45
  WS02001213WS02003059 CONDUIT    395.63     0  03:39      0.85    0.65    0.75
  WS02003059WS02003060 CONDUIT    399.92     0  03:40      0.95    0.26    0.63
  WS02003060WS02003069 CONDUIT    816.08     0  02:55      1.80    0.32    0.42
  WS02003066WSF200     CONDUIT    411.93     0  02:55      2.69    0.07    0.19
  WS02003067WS02003066 CONDUIT    411.93     0  02:55      1.04    0.13    0.38
  WS02003069WS02003072 CONDUIT    816.38     0  02:56      1.55    0.39    0.47
  WS02003072WS02003073 CONDUIT    816.37     0  02:56      1.64    1.76    0.45
  WS02004138WS02004139 CONDUIT    395.20     0  00:00      3.65    0.08    0.43
  WS02004139WS02001211 CONDUIT    381.78     0  03:38      0.91    0.48    0.59
  WS02004401WS02004402 CONDUIT    412.15     0  02:52      0.99    0.49    0.77
  WS02004402WS02004403 CONDUIT    412.21     0  02:56      0.99    0.59    0.79
  WS02004403WS02004404 CONDUIT    412.06     0  02:52      0.93    0.30    0.84
  WS02004404WS02004405 CONDUIT    412.24     0  02:52      1.10    4.04    0.88
  WS02004405WS02004406 CONDUIT    412.32     0  02:56      1.03    0.81    0.88
  WS02004406WS02004407 CONDUIT    412.16     0  02:53      0.89    0.18    0.57
  WS02004407WS02004409 CONDUIT    412.10     0  02:53      1.36    0.15    0.42
  WS02004409WS02004410 CONDUIT    412.07     0  02:53      0.88    0.53    0.58
  WS02004410WS02004411 CONDUIT    412.03     0  02:53      0.84    0.56    0.60
  WS02004411WS02004412 CONDUIT    412.01     0  02:54      0.81    0.59    0.61
  WS02004412WS02004413 CONDUIT    411.99     0  02:54      0.70    0.28    0.70
  WS02004413WS02003067 CONDUIT    411.93     0  02:54      0.96    0.18    0.54
  WS02006109WS02006110 CONDUIT    411.80     0  02:11      0.84    0.79    0.94
  WS02006110WS02006113 CONDUIT    411.93     0  02:51      1.03    0.37    0.75
  WS02006111WS02006112 CONDUIT    413.87     0  02:37      1.83    0.20    0.65
  WS02006112WS02006115 CONDUIT    412.35     0  02:37      0.70    0.24    0.78
  WS02006113WS02006111 CONDUIT    423.56     0  02:33      2.25    0.51    0.40
  WS02006115WS02006116 CONDUIT    412.40     0  02:55      0.98    0.53    0.66
  WS02006116WS02004401 CONDUIT    412.28     0  02:55      1.00    0.57    0.74
  WS02006228WS02006109 CONDUIT    411.22     0  02:11      1.06    1.80    1.00
  WS02006229WS02006228 CONDUIT    412.46     0  02:12      1.13    1.37    1.00
  WS02006230WS02006229 CONDUIT    410.75     0  02:11      1.22    9.14    1.00
  WS02006231WS02006230 CONDUIT    400.30     0  02:45      1.37    6.07    0.77
  WS02006232WS02006231 CONDUIT    400.38     0  02:45      1.08    0.84    0.92
  WS02006234WS02006232 CONDUIT    400.38     0  02:45      1.40    0.81    1.00
  WS02006235WS02006234 CONDUIT    401.33     0  02:11      1.30    4.23    0.99
  WS02006238WS02006235 CONDUIT    402.21     0  02:37      1.48    0.90    1.00
  WS02006239WS02006238 CONDUIT    401.47     0  02:54      1.21    1.28    1.00
  WS02006240WS02006239 CONDUIT    401.40     0  02:09      1.30    1.26    1.00
  WS02006242WS02006240 CONDUIT    400.87     0  02:37      1.17    1.59    1.00
  WS02006243WS02006242 CONDUIT    401.75     0  02:42      1.43    0.86    1.00
  WS02006245WS02006243 CONDUIT    400.98     0  02:37      1.45    1.19    1.00
  WS02006247WS02006245 CONDUIT    403.37     0  02:34      1.43    3.20    1.00
  WS02006248WS02006247 CONDUIT    401.39     0  02:09      1.45    0.87    1.00
  WS02006249WS02006248 CONDUIT    401.83     0  02:09      1.38    2.20    1.00
  WS02006251WS02006249 CONDUIT    462.97     0  01:46      1.99    1.33    1.00
  WS02006252WS02006251 CONDUIT    402.83     0  01:45     24.55    1.48    1.00
  WS02006256WS02006235 CONDUIT    288.91     0  00:00      4.23    3.06    1.00
  WSF200WS02003060     CONDUIT    411.93     0  02:55      1.43    0.09    0.30
  YS02001580YS02001583 CONDUIT    123.31     0  02:07      0.64    0.48    1.00
  YS02001583YS02001586 CONDUIT    156.96     0  02:06      0.65    0.24    1.00
  YS02001586YS02001590 CONDUIT    317.95     0  02:16      1.27    0.56    1.00
  YS02001590YS02001593 CONDUIT    318.07     0  02:25      1.12    2.00    1.00
  YS02001593YS02001596 CONDUIT    317.95     0  02:13      1.62    0.50    1.00
  YS02001596YS02001600 CONDUIT    318.11     0  02:16      1.13    0.62    1.00
  YS02001600YS02001601 CONDUIT    317.93     0  02:19      1.12    0.55    1.00
  YS02001601YS02001602 CONDUIT    510.42     0  02:06      1.81    1.84    1.00
  YS02001602YS02001605 CONDUIT    510.15     0  02:06      1.80   10.80    1.00
  YS02001605YS02001607 CONDUIT    510.02     0  02:06      1.80    2.80    1.00
  YS02001607YS02001610 CONDUIT    509.08     0  02:05      0.65    0.48    1.00
  YS02001610YS02001613 CONDUIT    509.43     0  02:05      0.65    0.59    1.00
  YS02001613YS02001616 CONDUIT    506.47     0  02:06      0.65    0.43    1.00
  YS02001616YS02001619 CONDUIT    496.69     0  02:06      0.66    0.86    1.00
  YS02001619YS02001622 CONDUIT    941.19     0  02:09      1.20    1.39    1.00
  YS02001622YS02001625 CONDUIT    942.88     0  02:09      1.20    0.50    1.00
  YS02001625YS02001629 CONDUIT    942.52     0  02:09      1.20    0.45    1.00
  YS02001629YS02163301 CONDUIT    944.28     0  02:09      1.20    1.16    1.00
  YS02001633YS02163601 CONDUIT   1386.76     0  02:09      1.77    1.46    1.00
  YS02001641YS02001644 CONDUIT   1472.79     0  02:09      1.88    4.76    1.00
  YS02001644YS02001647 CONDUIT   1862.89     0  02:09      2.40    1.09    1.00
  YS02001647YS02001649 CONDUIT   1779.47     0  02:09      2.34    0.94    1.00
  YS02001649YS02001757 CONDUIT   1981.42     0  02:09      2.54    1.20    1.00
  YS02001652YS02001649 CONDUIT    747.39     0  02:13      0.95    0.37    1.00
  YS02001655YS02001652 CONDUIT    745.17     0  02:13      1.29    0.36    1.00
  YS02001658YS02001655 CONDUIT    743.42     0  02:13      1.90    0.32    1.00
  YS02001661YS02001658 CONDUIT    742.00     0  02:13      2.31    0.29    1.00
  YS02001664YS02001661 CONDUIT    754.46     0  02:12      2.30    0.24    0.76
  YS02001745YS02001748 CONDUIT    510.40     0  02:12      2.13    0.20    0.87
  YS02001748YS02001751 CONDUIT    421.52     0  02:12      1.65    0.21    1.00
  YS02001751YS02001754 CONDUIT    421.79     0  02:12      1.38    0.20    1.00
  YS02001754YS02001757 CONDUIT    420.65     0  02:12      0.54    0.17    1.00
  YS02001757CaochengTiaoxuchi CONDUIT   3250.63     0  02:13      4.14    1.41    1.00
  YS02001759YS02001757 CONDUIT   1257.89     0  02:14      1.60    0.89    1.00
  YS02001762YS02001759 CONDUIT    737.57     0  02:14      0.94    0.85    1.00
  YS02001765YS02001762 CONDUIT    736.69     0  02:14      0.94    0.69    1.00
  YS02001767YS02001765 CONDUIT    735.23     0  02:14      0.94    0.92    1.00
  YS02001770YS02001767 CONDUIT    733.71     0  02:14      0.93    2.91    1.00
  YS02001774YS02001770 CONDUIT    348.62     0  02:10      0.44    0.22    1.00
  YS02001779YS02001774 CONDUIT    359.46     0  02:10      0.46    0.18    1.00
  YS02001783YS02001784 CONDUIT    975.83     0  02:12      1.94    1.35    1.00
  YS02001784YS02001785 CONDUIT    976.53     0  02:11      1.94    2.27    1.00
  YS02001786YS02001788 CONDUIT    976.78     0  02:13      2.05    1.88    1.00
  YS02001788YS02001790 CONDUIT    977.14     0  02:11      2.07    0.72    1.00
  YS02001790YS02001791 CONDUIT    977.36     0  02:11      2.40    1.06    1.00
  YS02001791YS02001793 CONDUIT    978.01     0  02:12      4.60    0.42    1.00
  YS02001793JiankangQianchi CONDUIT    977.99     0  02:11      1.54    0.08    1.00
  YS02001882YS02001884 CONDUIT     54.64     0  02:08      0.11    0.06    1.00
  YS02001884YS02001887 CONDUIT     93.58     0  02:08      0.12    0.12    1.00
  YS02001887YS02001890 CONDUIT    588.50     0  02:13      0.75    1.01    1.00
  YS02001890YS02001895 CONDUIT    513.56     0  02:14      0.65    0.24    1.00
  YS02001895YS02001898 CONDUIT    513.89     0  02:15      0.65    0.89    1.00
  YS02001898YS02001901 CONDUIT    514.49     0  02:14      0.66    0.33    1.00
  YS02001901YS02001904 CONDUIT    513.32     0  02:15      0.65    0.80    1.00
  YS02001904YS02001907 CONDUIT    514.07     0  02:15      0.65    0.18    1.00
  YS02001907YS02006553 CONDUIT    675.30     0  02:25      0.75    0.79    1.00
  YS02001910YS02001907 CONDUIT    990.57     0  02:14      1.26    0.56    1.00
  YS02001915YS02001910 CONDUIT    990.25     0  02:14      1.26    0.49    1.00
  YS02001918YS02001915 CONDUIT    544.41     0  02:09      0.72    0.30    1.00
  YS02001920YS02001918 CONDUIT    462.72     0  02:11      0.64    0.45    1.00
  YS02001923YS02001920 CONDUIT    458.39     0  02:11      0.71    0.21    1.00
  YS02001926YS02001923 CONDUIT    469.52     0  02:09      0.94    0.67    1.00
  YS02001929YS02001926 CONDUIT    463.66     0  02:10      1.11    0.22    1.00
  YS02006553YS02006556 CONDUIT    676.26     0  02:25      0.86    0.58    1.00
  YS02006556YS02006558 CONDUIT    679.27     0  02:25      0.86    0.54    1.00
  YS02006558YS02006561 CONDUIT    976.16     0  02:12      3.45    2.16    1.00
  YS02006561YS02001783 CONDUIT    976.16     0  02:12      2.09    0.51    1.00
  YS02163301YS02001633 CONDUIT    942.45     0  02:09      1.20    0.89    1.00
  YS02163601YS02164001 CONDUIT   1385.29     0  02:09      1.76    1.23    1.00
  YS02164001YS02001641 CONDUIT   1435.33     0  02:09      1.83    1.96    1.00
  CC-R1                PUMP       683.00     0  00:00              1.00
  CC-R2                PUMP       683.00     0  00:00              1.00
  CC-S1                PUMP       200.00     0  00:00              1.00
  CC-S2                PUMP       200.00     0  00:00              1.00
  JK-R1                PUMP      1000.00     0  00:00              1.00
  JK-R2                PUMP      1000.00     0  00:00              1.00
  JK-S                 PUMP       300.00     0  00:00              1.00
  XR-1                 PUMP        95.00     0  00:00              1.00
  XR-2                 PUMP        95.00     0  00:00              1.00
  XR-3                 PUMP        95.00     0  00:00              1.00
  XR-4                 PUMP        95.00     0  00:00              1.00
  
  
  ***************************
  Flow Classification Summary
  ***************************
  
  -------------------------------------------------------------------------------------
                      Adjusted    ---------- Fraction of Time in Flow Class ---------- 
                       /Actual         Up    Down  Sub   Sup   Up    Down  Norm  Inlet 
  Conduit               Length    Dry  Dry   Dry   Crit  Crit  Crit  Crit  Ltd   Ctrl  
  -------------------------------------------------------------------------------------
  1                       1.00   0.00  0.00  0.00  0.00  1.00  0.00  0.00  0.19  0.00
  WS02001211WS02001212    1.00   0.00  0.00  0.00  1.00  0.00  0.00  0.00  0.00  0.00
  WS02001212WS02001213    1.00   0.00  0.00  0.00  0.36  0.00  0.64  0.00  0.00  0.00
  WS02001213WS02003059    1.00   0.00  0.00  0.00  0.99  0.00  0.00  0.00  0.00  0.00
  WS02003059WS02003060    1.00   0.00  0.00  0.00  1.00  0.00  0.00  0.00  0.00  0.00
  WS02003060WS02003069    1.00   0.00  0.00  0.00  0.99  0.01  0.00  0.00  0.00  0.00
  WS02003066WSF200        1.00   0.02  0.10  0.00  0.00  0.88  0.00  0.00  0.87  0.00
  WS02003067WS02003066    1.00   0.10  0.02  0.00  0.89  0.00  0.00  0.00  0.00  0.00
  WS02003069WS02003072    1.00   0.00  0.00  0.00  0.99  0.01  0.00  0.00  0.00  0.00
  WS02003072WS02003073    1.00   0.00  0.00  0.00  0.00  0.00  0.00  1.00  0.00  0.00
  WS02004138WS02004139    1.00   0.00  0.00  0.00  0.99  0.01  0.00  0.00  1.00  0.00
  WS02004139WS02001211    1.00   0.00  0.00  0.00  1.00  0.00  0.00  0.00  0.00  0.00
  WS02004401WS02004402    1.00   0.02  0.00  0.00  0.98  0.00  0.00  0.00  0.00  0.00
  WS02004402WS02004403    1.00   0.02  0.00  0.00  0.98  0.00  0.00  0.00  0.00  0.00
  WS02004403WS02004404    1.00   0.00  0.03  0.00  0.97  0.00  0.00  0.00  0.00  0.00
  WS02004404WS02004405    1.00   0.00  0.00  0.00  1.00  0.00  0.00  0.00  0.00  0.00
  WS02004405WS02004406    1.00   0.00  0.00  0.00  1.00  0.00  0.00  0.00  0.00  0.00
  WS02004406WS02004407    1.00   0.00  0.05  0.00  0.95  0.00  0.00  0.00  0.00  0.00
  WS02004407WS02004409    1.00   0.05  0.00  0.00  0.94  0.01  0.00  0.00  0.94  0.00
  WS02004409WS02004410    1.00   0.05  0.00  0.00  0.95  0.00  0.00  0.00  0.03  0.00
  WS02004410WS02004411    1.00   0.05  0.00  0.00  0.95  0.00  0.00  0.00  0.00  0.00
  WS02004411WS02004412    1.00   0.05  0.00  0.00  0.95  0.00  0.00  0.00  0.00  0.00
  WS02004412WS02004413    1.00   0.05  0.00  0.00  0.94  0.00  0.00  0.00  0.01  0.00
  WS02004413WS02003067    1.00   0.06  0.04  0.00  0.00  0.00  0.90  0.00  0.00  0.00
  WS02006109WS02006110    1.00   0.00  0.01  0.00  0.98  0.00  0.01  0.00  0.00  0.00
  WS02006110WS02006113    1.00   0.01  0.01  0.00  0.98  0.00  0.00  0.00  0.00  0.00
  WS02006111WS02006112    1.00   0.02  0.00  0.00  0.98  0.00  0.00  0.00  0.98  0.00
  WS02006112WS02006115    1.00   0.02  0.00  0.00  0.97  0.00  0.00  0.00  0.00  0.00
  WS02006113WS02006111    1.00   0.02  0.00  0.00  0.00  0.98  0.00  0.00  0.11  0.00
  WS02006115WS02006116    1.00   0.02  0.00  0.00  0.97  0.00  0.00  0.01  0.00  0.00
  WS02006116WS02004401    1.00   0.02  0.00  0.00  0.98  0.00  0.00  0.00  0.00  0.00
  WS02006228WS02006109    1.00   0.00  0.00  0.00  1.00  0.00  0.00  0.00  0.00  0.00
  WS02006229WS02006228    1.00   0.00  0.00  0.00  0.99  0.00  0.00  0.01  0.00  0.00
  WS02006230WS02006229    1.00   0.00  0.00  0.00  0.99  0.00  0.00  0.01  0.00  0.00
  WS02006231WS02006230    1.00   0.00  0.00  0.00  0.20  0.00  0.79  0.00  0.00  0.00
  WS02006232WS02006231    1.00   0.00  0.00  0.00  0.99  0.00  0.01  0.00  0.00  0.00
  WS02006234WS02006232    1.00   0.00  0.00  0.00  1.00  0.00  0.00  0.00  0.53  0.00
  WS02006235WS02006234    1.00   0.00  0.00  0.00  0.43  0.00  0.57  0.00  0.00  0.00
  WS02006238WS02006235    1.00   0.00  0.00  0.00  1.00  0.00  0.00  0.00  0.00  0.00
  WS02006239WS02006238    1.00   0.00  0.00  0.00  1.00  0.00  0.00  0.00  0.62  0.00
  WS02006240WS02006239    1.00   0.00  0.00  0.00  0.34  0.00  0.00  0.66  0.01  0.00
  WS02006242WS02006240    1.00   0.00  0.00  0.00  0.99  0.00  0.01  0.00  0.00  0.00
  WS02006243WS02006242    1.00   0.00  0.00  0.00  0.99  0.00  0.00  0.01  0.71  0.00
  WS02006245WS02006243    1.00   0.00  0.00  0.00  0.39  0.00  0.00  0.61  0.00  0.00
  WS02006247WS02006245    1.00   0.00  0.00  0.00  0.99  0.00  0.00  0.01  0.00  0.00
  WS02006248WS02006247    1.00   0.00  0.00  0.00  0.99  0.00  0.00  0.01  0.13  0.00
  WS02006249WS02006248    1.00   0.00  0.00  0.00  0.28  0.00  0.72  0.00  0.00  0.00
  WS02006251WS02006249    1.00   0.00  0.00  0.00  1.00  0.00  0.00  0.00  0.73  0.00
  WS02006252WS02006251    1.00   0.02  0.74  0.00  0.00  0.00  0.24  0.00  0.00  0.00
  WS02006256WS02006235    1.00   0.00  0.00  0.00  1.00  0.00  0.00  0.00  0.00  0.00
  WSF200WS02003060        1.00   0.00  0.02  0.00  0.98  0.00  0.00  0.00  0.70  0.00
  YS02001580YS02001583    1.00   0.26  0.57  0.00  0.17  0.00  0.00  0.00  0.66  0.00
  YS02001583YS02001586    1.00   0.49  0.29  0.00  0.22  0.00  0.00  0.00  0.66  0.00
  YS02001586YS02001590    1.00   0.13  0.00  0.00  0.39  0.04  0.00  0.45  0.34  0.00
  YS02001590YS02001593    1.00   0.13  0.01  0.00  0.11  0.00  0.76  0.00  0.00  0.00
  YS02001593YS02001596    1.00   0.14  0.00  0.00  0.75  0.00  0.00  0.11  0.64  0.00
  YS02001596YS02001600    1.00   0.14  0.00  0.00  0.78  0.01  0.00  0.07  0.02  0.00
  YS02001600YS02001601    1.00   0.13  0.01  0.00  0.86  0.00  0.00  0.00  0.05  0.00
  YS02001601YS02001602    1.00   0.13  0.01  0.00  0.86  0.00  0.00  0.00  0.00  0.00
  YS02001602YS02001605    1.00   0.14  0.00  0.00  0.86  0.00  0.00  0.00  0.00  0.00
  YS02001605YS02001607    1.00   0.14  0.00  0.00  0.86  0.00  0.00  0.00  0.00  0.00
  YS02001607YS02001610    1.00   0.13  0.01  0.00  0.86  0.00  0.00  0.00  0.02  0.00
  YS02001610YS02001613    1.00   0.13  0.00  0.00  0.87  0.00  0.00  0.00  0.01  0.00
  YS02001613YS02001616    1.00   0.13  0.00  0.00  0.87  0.00  0.00  0.00  0.01  0.00
  YS02001616YS02001619    1.00   0.13  0.00  0.00  0.87  0.00  0.00  0.00  0.00  0.00
  YS02001619YS02001622    1.00   0.13  0.00  0.00  0.87  0.00  0.00  0.00  0.00  0.00
  YS02001622YS02001625    1.00   0.13  0.00  0.00  0.87  0.00  0.00  0.00  0.05  0.00
  YS02001625YS02001629    1.00   0.13  0.05  0.00  0.76  0.00  0.06  0.00  0.00  0.00
  YS02001629YS02163301    1.00   0.16  0.01  0.00  0.83  0.00  0.00  0.00  0.00  0.00
  YS02001633YS02163601    1.00   0.00  0.01  0.00  0.99  0.00  0.00  0.00  0.15  0.00
  YS02001641YS02001644    1.00   0.00  0.01  0.00  0.99  0.00  0.00  0.00  0.00  0.00
  YS02001644YS02001647    1.00   0.00  0.18  0.00  0.82  0.00  0.00  0.00  0.00  0.00
  YS02001647YS02001649    1.00   0.00  0.18  0.00  0.78  0.04  0.00  0.00  0.02  0.00
  YS02001649YS02001757    1.00   0.00  0.00  0.00  0.95  0.05  0.00  0.00  0.19  0.00
  YS02001652YS02001649    1.00   0.00  0.00  0.00  0.96  0.04  0.00  0.00  0.18  0.00
  YS02001655YS02001652    1.00   0.00  0.00  0.00  0.75  0.01  0.00  0.24  0.01  0.00
  YS02001658YS02001655    1.00   0.00  0.14  0.00  0.74  0.12  0.00  0.00  0.07  0.00
  YS02001661YS02001658    1.00   0.14  0.00  0.00  0.73  0.13  0.00  0.00  0.04  0.00
  YS02001664YS02001661    1.00   0.13  0.00  0.00  0.82  0.05  0.00  0.00  0.86  0.00
  YS02001745YS02001748    1.00   0.00  0.00  0.00  0.73  0.00  0.00  0.27  0.00  0.00
  YS02001748YS02001751    1.00   0.00  0.00  0.00  0.87  0.13  0.00  0.00  0.13  0.00
  YS02001751YS02001754    1.00   0.00  0.00  0.00  0.74  0.00  0.00  0.25  0.01  0.00
  YS02001754YS02001757    1.00   0.00  0.00  0.00  1.00  0.00  0.00  0.00  0.25  0.00
  YS02001757CaochengTiaoxuchi    1.00   0.00  0.00  0.00  1.00  0.00  0.00  0.00  0.24  0.00
  YS02001759YS02001757    1.00   0.00  0.00  0.00  1.00  0.00  0.00  0.00  0.07  0.00
  YS02001762YS02001759    1.00   0.00  0.00  0.00  1.00  0.00  0.00  0.00  0.04  0.00
  YS02001765YS02001762    1.00   0.00  0.00  0.00  1.00  0.00  0.00  0.00  0.17  0.00
  YS02001767YS02001765    1.00   0.00  0.00  0.00  1.00  0.00  0.00  0.00  0.00  0.00
  YS02001770YS02001767    1.00   0.00  0.00  0.00  1.00  0.00  0.00  0.00  0.00  0.00
  YS02001774YS02001770    1.00   0.00  0.13  0.00  0.86  0.00  0.00  0.00  0.03  0.00
  YS02001779YS02001774    1.00   0.00  0.00  0.00  1.00  0.00  0.00  0.00  0.19  0.00
  YS02001783YS02001784    1.00   0.00  0.19  0.00  0.81  0.00  0.00  0.00  0.00  0.00
  YS02001784YS02001785    1.00   0.00  0.00  0.00  1.00  0.00  0.00  0.00  0.18  0.00
  YS02001786YS02001788    1.00   0.00  0.00  0.00  0.94  0.06  0.00  0.00  0.00  0.00
  YS02001788YS02001790    1.00   0.00  0.00  0.00  0.94  0.06  0.00  0.00  0.20  0.00
  YS02001790YS02001791    1.00   0.00  0.00  0.00  0.76  0.24  0.00  0.00  0.04  0.00
  YS02001791YS02001793    1.00   0.00  0.00  0.00  0.75  0.25  0.00  0.00  0.00  0.00
  YS02001793JiankangQianchi    1.00   0.00  0.00  0.00  0.93  0.06  0.00  0.00  0.22  0.00
  YS02001882YS02001884    1.00   0.15  0.01  0.00  0.84  0.00  0.00  0.00  0.00  0.00
  YS02001884YS02001887    1.00   0.06  0.05  0.00  0.89  0.00  0.00  0.00  0.00  0.00
  YS02001887YS02001890    1.00   0.00  0.00  0.00  0.97  0.00  0.03  0.00  0.00  0.00
  YS02001890YS02001895    1.00   0.00  0.17  0.00  0.83  0.00  0.00  0.00  0.00  0.00
  YS02001895YS02001898    1.00   0.17  0.00  0.00  0.81  0.00  0.02  0.00  0.00  0.00
  YS02001898YS02001901    1.00   0.17  0.00  0.00  0.83  0.00  0.00  0.00  0.01  0.00
  YS02001901YS02001904    1.00   0.17  0.00  0.00  0.83  0.00  0.00  0.00  0.00  0.00
  YS02001904YS02001907    1.00   0.00  0.17  0.00  0.83  0.00  0.00  0.00  0.00  0.00
  YS02001907YS02006553    1.00   0.00  0.02  0.00  0.98  0.00  0.00  0.00  0.00  0.00
  YS02001910YS02001907    1.00   0.00  0.00  0.00  0.97  0.00  0.00  0.03  0.12  0.00
  YS02001915YS02001910    1.00   0.00  0.00  0.00  0.96  0.04  0.00  0.00  0.17  0.00
  YS02001918YS02001915    1.00   0.00  0.01  0.00  0.98  0.02  0.00  0.00  0.78  0.00
  YS02001920YS02001918    1.00   0.00  0.01  0.00  0.99  0.00  0.00  0.00  0.00  0.00
  YS02001923YS02001920    1.00   0.00  0.00  0.00  1.00  0.00  0.00  0.00  0.94  0.00
  YS02001926YS02001923    1.00   0.00  0.07  0.00  0.05  0.00  0.88  0.00  0.00  0.00
  YS02001929YS02001926    1.00   0.00  0.13  0.00  0.87  0.00  0.00  0.00  0.83  0.00
  YS02006553YS02006556    1.00   0.01  0.00  0.00  0.99  0.00  0.00  0.00  0.03  0.00
  YS02006556YS02006558    1.00   0.00  0.00  0.00  1.00  0.00  0.00  0.00  0.00  0.00
  YS02006558YS02006561    1.00   0.19  0.00  0.00  0.06  0.75  0.00  0.00  0.18  0.00
  YS02006561YS02001783    1.00   0.19  0.00  0.00  0.74  0.07  0.00  0.00  0.72  0.00
  YS02163301YS02001633    1.00   0.00  0.16  0.00  0.84  0.00  0.00  0.00  0.00  0.00
  YS02163601YS02164001    1.00   0.00  0.08  0.00  0.92  0.00  0.00  0.00  0.00  0.00
  YS02164001YS02001641    1.00   0.01  0.07  0.00  0.92  0.00  0.00  0.00  0.06  0.00
  
  
  *************************
  Conduit Surcharge Summary
  *************************
  
  ----------------------------------------------------------------------------
                                                           Hours        Hours 
                         --------- Hours Full --------   Above Full   Capacity
  Conduit                Both Ends  Upstream  Dnstream   Normal Flow   Limited
  ----------------------------------------------------------------------------
  WS02003072WS02003073        0.01      0.01      0.01      2.31         0.01
  WS02004404WS02004405        0.01      0.01      0.01      2.16         0.01
  WS02006109WS02006110        0.01      0.01      1.51      0.01         0.01
  WS02006110WS02006113        0.01      0.01      1.49      0.01         0.01
  WS02006111WS02006112        0.01      0.01      1.59      0.01         0.01
  WS02006228WS02006109        1.45      1.51      1.45      1.79         1.45
  WS02006229WS02006228        1.44      1.46      1.44      1.68         1.44
  WS02006230WS02006229        1.59      1.64      1.59      2.43         1.59
  WS02006231WS02006230        0.01      0.01      0.01      2.23         0.01
  WS02006232WS02006231        0.01      0.01      1.52      0.01         0.01
  WS02006234WS02006232        1.42      1.42      1.52      0.01         0.01
  WS02006235WS02006234        0.01      0.01      1.46      2.10         0.01
  WS02006238WS02006235        1.47      1.47      1.53      0.01         0.01
  WS02006239WS02006238        1.49      1.51      1.49      1.74         1.49
  WS02006240WS02006239        1.46      1.48      1.46      1.76         1.46
  WS02006242WS02006240        1.47      1.47      1.61      1.83         0.01
  WS02006243WS02006242        1.49      1.49      1.56      0.01         0.01
  WS02006245WS02006243        1.48      1.49      1.48      1.82         1.48
  WS02006247WS02006245        1.48      1.51      1.48      1.92         1.48
  WS02006248WS02006247        1.49      1.49      1.50      0.01         0.01
  WS02006249WS02006248        1.48      1.48      1.50      1.91         0.01
  WS02006251WS02006249        1.49      1.50      1.50      1.89         1.49
  WS02006252WS02006251        1.93      1.93      1.93      1.93         0.01
  WS02006256WS02006235        2.16      2.17      3.00      0.02         0.01
  YS02001580YS02001583        0.41      0.41      0.45      0.01         0.01
  YS02001583YS02001586        0.42      0.42      0.57      0.01         0.01
  YS02001586YS02001590        0.58      0.58      0.66      0.01         0.01
  YS02001590YS02001593        0.67      0.67      0.68      0.65         0.01
  YS02001593YS02001596        0.68      0.68      0.83      0.01         0.01
  YS02001596YS02001600        0.97      0.97      1.27      0.01         0.01
  YS02001600YS02001601        5.98      5.98      6.17      0.01         0.01
  YS02001601YS02001602        6.11      6.11      6.19      0.84         0.01
  YS02001602YS02001605        6.09      6.09      6.11      2.01         0.19
  YS02001605YS02001607        6.05      6.09      6.05      1.11         0.99
  YS02001607YS02001610        0.97      0.97      1.20      0.01         0.01
  YS02001610YS02001613        0.98      0.98      1.20      0.01         0.01
  YS02001613YS02001616        0.85      0.85      0.98      0.01         0.01
  YS02001616YS02001619        0.80      0.80      0.85      0.01         0.01
  YS02001619YS02001622        0.80      0.80      0.86      0.55         0.48
  YS02001622YS02001625        0.86      0.86      5.93      0.01         0.01
  YS02001625YS02001629        0.74      0.74      5.93      0.01         0.01
  YS02001629YS02163301        5.93      5.93      5.93      0.06         0.07
  YS02001633YS02163601        5.94      5.94      5.95      0.19         0.19
  YS02001641YS02001644        5.90      5.91      5.90      1.19         0.97
  YS02001644YS02001647        5.84      5.84      5.90      0.03         0.01
  YS02001647YS02001649        5.84      5.84      5.85      0.01         0.01
  YS02001649YS02001757        5.84      5.85      5.84      0.08         0.03
  YS02001652YS02001649        5.83      5.83      5.85      0.01         0.01
  YS02001655YS02001652        0.48      0.48      5.83      0.01         0.01
  YS02001658YS02001655        0.10      0.10      0.48      0.01         0.01
  YS02001661YS02001658        0.01      0.01      0.10      0.01         0.01
  YS02001664YS02001661        0.01      0.01      0.02      0.01         0.01
  YS02001745YS02001748        0.01      0.01      0.04      0.01         0.01
  YS02001748YS02001751        0.08      0.08      0.18      0.01         0.01
  YS02001751YS02001754        0.18      0.18      5.82      0.01         0.01
  YS02001754YS02001757        5.82      5.82      5.84      0.01         0.01
  YS02001757CaochengTiaoxuchi        5.84      5.84      5.84      0.23         0.20
  YS02001759YS02001757        5.83      5.83      5.84      0.01         0.01
  YS02001762YS02001759        5.83      5.83      5.83      0.01         0.02
  YS02001765YS02001762        5.83      5.83      5.83      0.01         0.01
  YS02001767YS02001765        5.83      5.83      5.83      0.01         0.02
  YS02001770YS02001767        5.83      5.83      5.83      0.36         0.43
  YS02001774YS02001770        5.83      5.83      5.83      0.01         0.01
  YS02001779YS02001774        5.82      5.82      5.83      0.01         0.01
  YS02001783YS02001784        0.57      0.57      0.57      0.46         0.47
  YS02001784YS02001785        0.57      0.57      0.57      0.70         0.57
  YS02001786YS02001788        0.57      0.57      0.57      0.59         0.57
  YS02001788YS02001790        0.57      0.57      5.95      0.01         0.01
  YS02001790YS02001791        5.95      5.95      5.96      0.27         0.27
  YS02001791YS02001793        5.96      5.96      5.99      0.01         0.01
  YS02001793JiankangQianchi        5.98      5.98      6.24      0.01         0.01
  YS02001882YS02001884        0.37      0.37      0.38      0.01         0.01
  YS02001884YS02001887        0.40      0.40      0.41      0.01         0.01
  YS02001887YS02001890        0.42      0.42      0.43      0.01         0.01
  YS02001890YS02001895        0.36      0.36      0.44      0.01         0.01
  YS02001895YS02001898        0.36      0.36      0.36      0.01         0.01
  YS02001898YS02001901        0.36      0.36      0.40      0.01         0.01
  YS02001901YS02001904        0.39      0.39      0.40      0.01         0.01
  YS02001904YS02001907        0.39      0.39      0.60      0.01         0.01
  YS02001907YS02006553        0.71      0.71      0.76      0.01         0.01
  YS02001910YS02001907        0.44      0.44      0.59      0.01         0.01
  YS02001915YS02001910        0.37      0.37      0.44      0.01         0.01
  YS02001918YS02001915        0.29      0.29      0.37      0.01         0.01
  YS02001920YS02001918        0.29      0.29      0.30      0.01         0.01
  YS02001923YS02001920        0.24      0.24      0.30      0.01         0.01
  YS02001926YS02001923        0.01      0.01      0.02      0.01         0.01
  YS02001929YS02001926        0.01      0.01      0.02      0.01         0.01
  YS02006553YS02006556        0.52      0.52      0.60      0.01         0.01
  YS02006556YS02006558        0.56      0.56      0.62      0.01         0.01
  YS02006558YS02006561        0.40      0.51      0.40      0.67         0.40
  YS02006561YS02001783        0.32      0.32      0.57      0.01         0.01
  YS02163301YS02001633        5.93      5.93      5.95      0.01         0.01
  YS02163601YS02164001        5.92      5.92      5.95      0.08         0.01
  YS02164001YS02001641        5.91      5.92      5.91      0.51         0.47
  
  
  ***************
  Pumping Summary
  ***************
  
  ---------------------------------------------------------------------------------------------------------
                                                  Min       Avg       Max     Total     Power    % Time Off
                        Percent   Number of      Flow      Flow      Flow    Volume     Usage    Pump Curve
  Pump                 Utilized   Start-Ups       LPS       LPS       LPS  10^6 ltr     Kw-hr    Low   High
  ---------------------------------------------------------------------------------------------------------
  CC-R1                    1.06           1      0.00    683.00    683.00     0.208      3.51    0.0  100.0
  CC-R2                    1.06           1      0.00    683.00    683.00     0.208      3.51    0.0  100.0
  CC-S1                   24.07           3      0.00    200.00    200.00     1.386      6.63    0.0   45.2
  CC-S2                   24.07           3      0.00    200.00    200.00     1.386      6.63    0.0   45.2
  JK-R1                    0.97           2      0.00    347.46   1000.00     0.078      0.47    0.0    0.0
  JK-R2                    0.97           2      0.00    347.46   1000.00     0.078      0.47    0.0    0.0
  JK-S                     0.97           2      0.00    104.30    300.00     0.023      0.44    0.0    0.0
  XR-1                   100.00           1      0.00     95.00     95.00     2.736     68.18    0.0    0.0
  XR-2                   100.00           1      0.00     95.00     95.00     2.736     68.18    0.0    0.0
  XR-3                   100.00           1      0.00     95.00     95.00     2.736     68.18    0.0    0.0
  XR-4                   100.00           1      0.00     95.00     95.00     2.736     68.18    0.0    0.0
  

  Analysis begun on:  Wed Nov  5 16:28:59 2025
  Analysis ended on:  Wed Nov  5 16:29:02 2025
  Total elapsed time: 00:00:03