
  EPA STORM WATER MANAGEMENT MODEL - VERSION 5.2 (Build 5.2.4)
  PYSWMM TOOLKIT API - VERSION v1.0 (2023-11-27)
  ------------------------------------------------------------

  WARNING 04: minimum elevation drop used for Conduit WS02004404WS02004405
  WARNING 03: negative offset ignored for Link YS02001904YS02001907
  
  ****************
  Analysis Options
  ****************
  Flow Units ............... LPS
  Process Models:
    Rainfall/Runoff ........ YES
    RDII ................... NO
    Snowmelt ............... NO
    Groundwater ............ NO
    Flow Routing ........... YES
    Ponding Allowed ........ NO
    Water Quality .......... NO
  Infiltration Method ...... HORTON
  Flow Routing Method ...... DYNWAVE
  Surcharge Method ......... EXTRAN
  Starting Date ............ 08/28/2015 08:00:00
  Ending Date .............. 08/28/2015 16:00:00
  Antecedent Dry Days ...... 8.0
  Report Time Step ......... 00:01:00
  Wet Time Step ............ 00:01:00
  Dry Time Step ............ 00:01:00
  Routing Time Step ........ 30.00 sec
  Variable Time Step ....... YES
  Maximum Trials ........... 8
  Number of Threads ........ 4
  Head Tolerance ........... 0.001500 m
  
  
  **************************        Volume         Depth
  Runoff Quantity Continuity     hectare-m            mm
  **************************     ---------       -------
  Initial LID Storage ......         0.049         1.488
  Total Precipitation ......         1.809        54.525
  Evaporation Loss .........         0.000         0.000
  Infiltration Loss ........         0.073         2.205
  Surface Runoff ...........         1.329        40.065
  Final Storage ............         0.457        13.776
  Continuity Error (%) .....        -0.060
  
  
  **************************        Volume        Volume
  Flow Routing Continuity        hectare-m      10^6 ltr
  **************************     ---------     ---------
  Dry Weather Inflow .......         0.602         6.020
  Wet Weather Inflow .......         1.329        13.290
  Groundwater Inflow .......         0.000         0.000
  RDII Inflow ..............         0.000         0.000
  External Inflow ..........         0.105         1.045
  External Outflow .........         1.495        14.950
  Flooding Loss ............         0.506         5.061
  Evaporation Loss .........         0.000         0.000
  Exfiltration Loss ........         0.000         0.000
  Initial Stored Volume ....         0.303         3.031
  Final Stored Volume ......         0.794         7.935
  Continuity Error (%) .....       -19.499
  
  
  *************************
  Highest Continuity Errors
  *************************
  Node YS02001774 (25.44%)
  Node YS02001583 (-8.31%)
  Node WS02006256 (-5.67%)
  Node YS02001884 (5.10%)
  Node YS02001754 (4.13%)
  
  
  ***************************
  Time-Step Critical Elements
  ***************************
  Link WS02001212WS02001213 (33.59%)
  Link WS02006235WS02006234 (20.75%)
  Link WS02006238WS02006235 (16.34%)
  Link WS02006252WS02006251 (5.73%)
  Link WS02003066WSF200 (5.44%)
  
  
  ********************************
  Highest Flow Instability Indexes
  ********************************
  Link WS02006113WS02006111 (36)
  Link WS02006238WS02006235 (34)
  Link WS02006256WS02006235 (30)
  Link WS02006111WS02006112 (29)
  Link WS02006252WS02006251 (27)
  
  
  *********************************
  Most Frequent Nonconverging Nodes
  *********************************
  Node CC-1 (13.81%)
  Node CC-2 (13.81%)
  Node JK-1 (13.81%)
  Node JK-2 (13.81%)
  Node WSC (13.81%)
  
  
  *************************
  Routing Time Step Summary
  *************************
  Minimum Time Step           :     0.01 sec
  Average Time Step           :     3.71 sec
  Maximum Time Step           :     6.46 sec
  % of Time in Steady State   :     0.00
  Average Iterations per Step :     3.44
  % of Steps Not Converging   :    13.81
  Time Step Frequencies       :
     30.000 - 13.228 sec      :     0.00 %
     13.228 -  5.833 sec      :    32.36 %
      5.833 -  2.572 sec      :    39.44 %
      2.572 -  1.134 sec      :    16.94 %
      1.134 -  0.500 sec      :    11.25 %
  
  
  ***************************
  Subcatchment Runoff Summary
  ***************************
  
  ------------------------------------------------------------------------------------------------------------------------------
                            Total      Total      Total      Total     Imperv       Perv      Total       Total     Peak  Runoff
                           Precip      Runon       Evap      Infil     Runoff     Runoff     Runoff      Runoff   Runoff   Coeff
  Subcatchment                 mm         mm         mm         mm         mm         mm         mm    10^6 ltr      LPS
  ------------------------------------------------------------------------------------------------------------------------------
  sub60                     54.52       0.00       0.00       1.32      36.11       3.74      39.84        0.52   424.21   0.731
  sub61                     54.52       0.00       0.00       2.02      36.08       5.56      41.64        0.76   616.37   0.764
  sub62                     54.52       0.00       0.00       0.89      38.46       2.54      41.00        1.12   845.01   0.752
  sub63                     54.52       0.00       0.00       3.69      30.90       9.25      40.15        0.91   689.53   0.736
  sub64                     54.52       0.00       0.00       1.77      35.18       4.60      39.78        0.96   679.80   0.730
  sub65                     54.52       0.00       0.00       1.63      37.97       4.20      42.17        1.16   786.81   0.773
  sub66                     54.52       0.00       0.00       4.32      29.87       8.21      38.08        1.78   992.29   0.698
  sub67                     54.52       0.00       0.00       0.89      39.43       2.63      42.06        0.78   669.72   0.771
  sub68                     54.52       0.00       0.00       1.55      34.82       4.27      39.09        1.08   842.37   0.717
  sub69                     54.52       0.00       0.00       1.39      36.65       5.09      41.74        1.55  1021.46   0.766
  sub70                     54.52       0.00       0.00       4.73      29.36      10.44      39.80        1.15   569.03   0.730
  sub71                     54.52       0.00       0.00       0.82      34.93       2.29      37.23        0.97   690.31   0.683
  sub72                     54.52       0.00       0.00       0.79      37.73       2.13      39.86        0.55   349.87   0.731
  

  ***********************
  LID Performance Summary
  ***********************

  --------------------------------------------------------------------------------------------------------------------
                                         Total      Evap     Infil   Surface    Drain    Initial     Final  Continuity
                                        Inflow      Loss      Loss   Outflow   Outflow   Storage   Storage       Error
  Subcatchment      LID Control             mm        mm        mm        mm        mm        mm        mm           %
  --------------------------------------------------------------------------------------------------------------------
  sub60             GreenRoof            54.52      0.00      0.00      0.00      0.00      7.05     61.67       -0.16
  sub61             GreenRoof            54.52      0.00      0.00      0.00      0.00      7.05     61.67       -0.16
  sub62             GreenRoof            54.52      0.00      0.00      0.00      0.00      7.05     61.67       -0.16
  sub63             GreenRoof            54.52      0.00      0.00      0.00      0.00      7.05     61.67       -0.16
  sub64             GreenRoof            54.52      0.00      0.00      0.00      0.00      7.05     61.67       -0.16
  sub65             GreenRoof            54.52      0.00      0.00      0.00      0.00      7.05     61.67       -0.16
  sub66             GreenRoof            54.52      0.00      0.00      0.00      0.00      7.05     61.67       -0.16
  sub67             GreenRoof            54.52      0.00      0.00      0.00      0.00      7.05     61.67       -0.16
  sub68             GreenRoof            54.52      0.00      0.00      0.00      0.00      7.05     61.67       -0.16
  sub69             GreenRoof            54.52      0.00      0.00      0.00      0.00      7.05     61.67       -0.16
  sub70             GreenRoof            54.52      0.00      0.00      0.00      0.00      7.05     61.67       -0.16
  sub71             GreenRoof            54.52      0.00      0.00      0.00      0.00      7.05     61.67       -0.16
  sub72             GreenRoof            54.52      0.00      0.00      0.00      0.00      7.05     61.67       -0.16
  
  ******************
  Node Depth Summary
  ******************
  
  ---------------------------------------------------------------------------------
                                 Average  Maximum  Maximum  Time of Max    Reported
                                   Depth    Depth      HGL   Occurrence   Max Depth
  Node                 Type       Meters   Meters   Meters  days hr:min      Meters
  ---------------------------------------------------------------------------------
  WS02001211           JUNCTION     0.76     0.78     5.62     0  02:34        0.78
  WS02001212           JUNCTION     0.46     0.49     5.55     0  02:36        0.49
  WS02001213           JUNCTION     0.68     0.73     5.49     0  02:39        0.73
  WS02003059           JUNCTION     0.72     0.78     5.47     0  02:32        0.78
  WS02003060           JUNCTION     0.38     0.47     5.41     0  02:32        0.47
  WS02003066           JUNCTION     0.15     0.27     5.82     0  02:31        0.27
  WS02003067           JUNCTION     0.42     0.65     5.97     0  02:31        0.65
  WS02003069           JUNCTION     0.42     0.54     5.12     0  02:32        0.54
  WS02003072           JUNCTION     0.48     0.60     4.97     0  02:32        0.60
  WS02003073           JUNCTION     0.29     0.37     4.43     0  02:33        0.37
  WS02004138           JUNCTION     0.19     0.20     7.45     0  00:00        0.19
  WS02004139           JUNCTION     0.71     0.73     5.64     0  03:25        0.73
  WS02004401           JUNCTION     0.50     0.75     6.75     0  03:23        0.75
  WS02004402           JUNCTION     0.53     0.78     6.74     0  03:23        0.78
  WS02004403           JUNCTION     0.55     0.80     6.73     0  03:23        0.80
  WS02004404           JUNCTION     0.63     0.88     6.73     0  03:23        0.88
  WS02004405           JUNCTION     0.63     0.87     6.72     0  03:23        0.87
  WS02004406           JUNCTION     0.64     0.88     6.71     0  03:23        0.88
  WS02004407           JUNCTION     0.13     0.26     6.57     0  02:11        0.26
  WS02004409           JUNCTION     0.29     0.57     6.34     0  02:29        0.57
  WS02004410           JUNCTION     0.32     0.59     6.31     0  02:30        0.59
  WS02004411           JUNCTION     0.34     0.61     6.29     0  02:30        0.61
  WS02004412           JUNCTION     0.37     0.62     6.26     0  02:30        0.62
  WS02004413           JUNCTION     0.52     0.79     6.26     0  02:31        0.79
  WS02006109           JUNCTION     0.54     0.84     7.45     0  02:02        0.83
  WS02006110           JUNCTION     0.56     0.82     7.41     0  02:29        0.82
  WS02006111           JUNCTION     0.13     0.25     6.96     0  03:22        0.25
  WS02006112           JUNCTION     0.64     0.93     6.82     0  03:22        0.93
  WS02006113           JUNCTION     0.20     0.39     7.29     0  03:21        0.39
  WS02006115           JUNCTION     0.38     0.65     6.78     0  03:22        0.65
  WS02006116           JUNCTION     0.46     0.73     6.77     0  03:22        0.73
  WS02006228           JUNCTION     0.53     0.85     7.50     0  02:01        0.84
  WS02006229           JUNCTION     0.50     0.83     7.52     0  02:02        0.82
  WS02006230           JUNCTION     0.48     0.86     7.60     0  02:19        0.86
  WS02006231           JUNCTION     0.28     0.60     7.72     0  02:19        0.60
  WS02006232           JUNCTION     0.40     0.75     7.79     0  02:27        0.75
  WS02006234           JUNCTION     0.32     0.71     7.87     0  02:21        0.71
  WS02006235           JUNCTION     0.35     0.76     7.93     0  02:00        0.76
  WS02006238           JUNCTION     0.38     0.81     7.95     0  02:29        0.80
  WS02006239           JUNCTION     0.35     0.81     8.02     0  01:56        0.80
  WS02006240           JUNCTION     0.34     0.79     8.08     0  02:17        0.79
  WS02006242           JUNCTION     0.41     0.91     8.17     0  01:56        0.90
  WS02006243           JUNCTION     0.35     0.84     8.26     0  02:20        0.84
  WS02006245           JUNCTION     0.36     0.86     8.34     0  01:56        0.85
  WS02006247           JUNCTION     0.38     0.90     8.40     0  02:20        0.89
  WS02006248           JUNCTION     0.36     0.86     8.45     0  02:20        0.85
  WS02006249           JUNCTION     0.39     0.98     8.58     0  01:56        0.98
  WS02006251           JUNCTION     0.39     0.91     8.58     0  02:18        0.91
  WS02006252           JUNCTION     0.27     1.50     9.74     0  00:00        0.82
  WS02006256           JUNCTION     0.59     2.35     9.28     0  00:00        2.35
  WSF200               JUNCTION     0.12     0.25     5.48     0  02:31        0.25
  YS02001580           JUNCTION     0.08     1.05     9.59     0  01:57        0.87
  YS02001583           JUNCTION     0.11     1.14     9.64     0  01:57        0.84
  YS02001586           JUNCTION     0.18     1.13     9.30     0  01:56        1.13
  YS02001590           JUNCTION     0.27     1.40     9.26     0  01:57        1.37
  YS02001593           JUNCTION     0.21     1.36     9.22     0  01:57        1.31
  YS02001596           JUNCTION     0.42     1.70     9.12     0  01:57        1.65
  YS02001600           JUNCTION     0.64     1.87     9.00     0  01:57        1.87
  YS02001601           JUNCTION     0.89     2.06     8.90     0  01:56        2.06
  YS02001602           JUNCTION     0.81     1.87     8.77     0  01:57        1.87
  YS02001605           JUNCTION     0.78     1.78     8.68     0  02:00        1.78
  YS02001607           JUNCTION     0.78     1.68     8.53     0  02:20        1.68
  YS02001610           JUNCTION     0.82     1.68     8.48     0  01:57        1.68
  YS02001613           JUNCTION     0.78     1.70     8.54     0  02:20        1.70
  YS02001616           JUNCTION     0.71     1.61     8.52     0  02:20        1.61
  YS02001619           JUNCTION     0.70     1.61     8.54     0  01:59        1.61
  YS02001622           JUNCTION     0.71     1.62     8.52     0  02:20        1.62
  YS02001625           JUNCTION     0.96     1.78     8.38     0  01:57        1.78
  YS02001629           JUNCTION     0.98     1.85     8.40     0  01:57        1.85
  YS02001633           JUNCTION     1.06     2.08     8.53     0  02:20        2.08
  YS02001641           JUNCTION     1.04     1.96     8.40     0  02:00        1.95
  YS02001644           JUNCTION     1.04     1.92     8.35     0  02:00        1.92
  YS02001647           JUNCTION     0.86     1.90     8.51     0  02:20        1.90
  YS02001649           JUNCTION     1.02     2.05     8.44     0  02:01        1.99
  YS02001652           JUNCTION     0.85     1.94     8.53     0  02:01        1.72
  YS02001655           JUNCTION     0.66     1.79     8.64     0  02:01        1.51
  YS02001658           JUNCTION     0.44     1.71     8.85     0  02:01        1.30
  YS02001661           JUNCTION     0.25     1.37     8.78     0  02:01        1.14
  YS02001664           JUNCTION     0.05     0.72     8.64     0  02:01        0.67
  YS02001745           JUNCTION     0.15     1.38     8.90     0  02:01        0.61
  YS02001748           JUNCTION     0.47     1.69     8.77     0  02:01        1.09
  YS02001751           JUNCTION     0.62     1.77     8.65     0  02:01        1.24
  YS02001754           JUNCTION     0.82     1.93     8.54     0  02:01        1.51
  YS02001757           JUNCTION     1.10     2.11     8.37     0  02:01        1.99
  YS02001759           JUNCTION     1.02     2.12     8.48     0  02:01        2.03
  YS02001762           JUNCTION     0.99     2.15     8.55     0  02:00        2.15
  YS02001765           JUNCTION     0.95     2.10     8.55     0  02:00        2.10
  YS02001767           JUNCTION     0.93     2.03     8.52     0  02:00        2.03
  YS02001770           JUNCTION     0.93     1.95     8.44     0  02:01        1.95
  YS02001774           JUNCTION     0.99     2.01     8.43     0  02:01        2.01
  YS02001779           JUNCTION     0.76     1.68     8.37     0  02:00        1.68
  YS02001783           JUNCTION     0.47     1.97     8.11     0  01:59        1.49
  YS02001784           JUNCTION     0.52     2.00     8.07     0  01:59        1.43
  YS02001786           JUNCTION     0.52     2.16     8.19     0  01:59        1.60
  YS02001788           JUNCTION     0.53     2.28     8.26     0  01:59        1.14
  YS02001790           JUNCTION     0.77     1.96     7.60     0  01:59        1.31
  YS02001791           JUNCTION     0.87     1.64     7.11     0  01:59        1.28
  YS02001793           JUNCTION     1.32     1.99     6.82     0  01:59        1.85
  YS02001882           JUNCTION     0.28     1.71     8.42     0  01:58        1.63
  YS02001884           JUNCTION     0.37     1.79     8.41     0  01:58        1.73
  YS02001887           JUNCTION     0.45     1.84     8.38     0  02:00        1.84
  YS02001890           JUNCTION     0.48     1.81     8.32     0  01:59        1.81
  YS02001895           JUNCTION     0.26     1.58     8.33     0  01:59        1.57
  YS02001898           JUNCTION     0.26     1.60     8.33     0  01:59        1.56
  YS02001901           JUNCTION     0.37     1.71     8.32     0  01:59        1.67
  YS02001904           JUNCTION     0.35     1.68     8.31     0  01:59        1.64
  YS02001907           JUNCTION     0.66     1.96     8.25     0  01:59        1.96
  YS02001910           JUNCTION     0.46     2.04     8.55     0  01:59        1.92
  YS02001915           JUNCTION     0.28     2.00     8.72     0  01:59        1.81
  YS02001918           JUNCTION     0.15     1.81     8.88     0  01:59        1.44
  YS02001920           JUNCTION     0.23     2.14     9.15     0  02:00        1.43
  YS02001923           JUNCTION     0.11     2.03     9.29     0  02:00        1.21
  YS02001926           JUNCTION     0.14     1.90     9.35     0  01:59        1.02
  YS02001929           JUNCTION     0.08     1.78     9.47     0  02:00        0.78
  YS02006553           JUNCTION     0.67     2.07     8.36     0  01:59        1.98
  YS02006556           JUNCTION     0.64     2.16     8.47     0  01:59        1.95
  YS02006558           JUNCTION     0.68     2.22     8.48     0  01:59        2.03
  YS02006561           JUNCTION     0.16     1.78     8.44     0  01:59        1.10
  YS02163301           JUNCTION     1.00     2.03     8.55     0  02:20        2.03
  YS02163601           JUNCTION     1.09     2.08     8.48     0  02:20        2.08
  YS02164001           JUNCTION     1.03     1.97     8.42     0  02:00        1.95
  CC-1                 OUTFALL      0.00     0.00     0.00     0  00:00        0.00
  CC-2                 OUTFALL      0.00     0.00     0.00     0  00:00        0.00
  JK-1                 OUTFALL      0.00     0.00     0.00     0  00:00        0.00
  JK-2                 OUTFALL      0.00     0.00     0.00     0  00:00        0.00
  WSC                  OUTFALL      0.29     0.37     1.04     0  02:33        0.37
  CC-storage           STORAGE      1.69     2.19     7.69     0  07:39        2.19
  JK-storage           STORAGE      4.45     5.80     6.60     0  01:58        5.80
  XR-storage           STORAGE      0.30     5.00     3.00     0  00:00        4.91
  
  
  *******************
  Node Inflow Summary
  *******************
  
  -------------------------------------------------------------------------------------------------
                                  Maximum  Maximum                  Lateral       Total        Flow
                                  Lateral    Total  Time of Max      Inflow      Inflow     Balance
                                   Inflow   Inflow   Occurrence      Volume      Volume       Error
  Node                 Type           LPS      LPS  days hr:min    10^6 ltr    10^6 ltr     Percent
  -------------------------------------------------------------------------------------------------
  WS02001211           JUNCTION      7.35   389.13     0  03:36       0.212        11.1       0.348
  WS02001212           JUNCTION      0.00   390.85     0  03:36           0        11.1       0.207
  WS02001213           JUNCTION      0.00   392.61     0  03:35           0        11.1       0.238
  WS02003059           JUNCTION      0.00   395.65     0  03:35           0          11       0.328
  WS02003060           JUNCTION     16.53   816.03     0  02:31       0.476        14.4       0.149
  WS02003066           JUNCTION      0.00   411.85     0  02:31           0        2.95       0.041
  WS02003067           JUNCTION      0.00   411.84     0  02:31           0        2.96       0.135
  WS02003069           JUNCTION      0.32   816.33     0  02:32     0.00922        14.4       0.158
  WS02003072           JUNCTION      0.00   816.32     0  02:32           0        14.4       0.206
  WS02003073           JUNCTION      1.82   818.14     0  02:33      0.0524        14.4       0.221
  WS02004138           JUNCTION      0.00   380.00     0  00:00           0        10.9       0.059
  WS02004139           JUNCTION      0.32   395.52     0  00:00     0.00924        10.9       0.407
  WS02004401           JUNCTION      0.00   412.20     0  03:22           0        3.06       0.354
  WS02004402           JUNCTION      0.00   412.12     0  03:23           0        3.05       0.354
  WS02004403           JUNCTION      0.00   412.00     0  03:23           0        3.04       0.340
  WS02004404           JUNCTION      0.16   412.11     0  03:23     0.00467        3.03       0.280
  WS02004405           JUNCTION      0.04   412.17     0  03:23      0.0011        3.02       0.416
  WS02004406           JUNCTION      0.00   412.25     0  03:23           0        3.01       0.689
  WS02004407           JUNCTION      0.00   411.94     0  02:11           0        2.99       0.033
  WS02004409           JUNCTION      0.00   411.90     0  02:11           0        2.99       0.074
  WS02004410           JUNCTION      0.00   411.90     0  02:29           0        2.99       0.130
  WS02004411           JUNCTION      0.00   411.89     0  02:30           0        2.98       0.171
  WS02004412           JUNCTION      0.00   411.88     0  02:37           0        2.98       0.235
  WS02004413           JUNCTION      0.00   411.89     0  02:30           0        2.97       0.422
  WS02006109           JUNCTION      1.23   412.39     0  02:02      0.0354        3.12       0.380
  WS02006110           JUNCTION      0.00   411.78     0  02:02           0        3.11       0.321
  WS02006111           JUNCTION      0.00   423.36     0  02:20           0        3.09       0.063
  WS02006112           JUNCTION      0.00   414.56     0  03:22           0        3.09       0.618
  WS02006113           JUNCTION      0.00   411.99     0  02:20           0         3.1       0.109
  WS02006115           JUNCTION      0.00   413.04     0  03:22           0        3.07       0.247
  WS02006116           JUNCTION      0.00   412.42     0  03:22           0        3.06       0.181
  WS02006228           JUNCTION      0.00   412.39     0  02:02           0        3.09       0.188
  WS02006229           JUNCTION      0.00   410.68     0  02:02           0        3.09       0.220
  WS02006230           JUNCTION     10.28   410.57     0  02:19       0.296         3.1       0.249
  WS02006231           JUNCTION      0.00   400.47     0  02:19           0        2.81       0.034
  WS02006232           JUNCTION      0.00   400.45     0  02:19           0        2.82       0.586
  WS02006234           JUNCTION      0.00   401.70     0  02:20           0        2.82      -0.069
  WS02006235           JUNCTION      0.00   401.93     0  02:31           0        2.84       0.505
  WS02006238           JUNCTION      0.00   402.17     0  02:19           0        2.82      -0.167
  WS02006239           JUNCTION      0.00   401.74     0  01:56           0        2.82       0.100
  WS02006240           JUNCTION      0.00   401.33     0  02:20           0        2.82       0.270
  WS02006242           JUNCTION      0.00   401.16     0  02:20           0        2.84       0.544
  WS02006243           JUNCTION      0.00   401.20     0  01:56           0        2.85       0.450
  WS02006245           JUNCTION      0.00   403.50     0  02:13           0        2.87       0.833
  WS02006247           JUNCTION      0.00   401.13     0  02:20           0        2.88       0.353
  WS02006248           JUNCTION      0.00   403.31     0  02:20           0        2.89       0.404
  WS02006249           JUNCTION      0.00   465.27     0  07:56           0        2.92       0.859
  WS02006251           JUNCTION      0.08   403.36     0  07:56     0.00222        2.93       0.297
  WS02006252           JUNCTION      0.00   400.00     0  00:00           0        2.93      -0.046
  WS02006256           JUNCTION      0.00   300.00     0  00:00           0      0.0243      -5.366
  WSF200               JUNCTION      0.00   411.84     0  02:31           0        2.95       0.018
  YS02001580           JUNCTION      0.00   131.07     0  01:57           0      0.0044       1.597
  YS02001583           JUNCTION      0.00   213.42     0  01:57           0       0.015      -7.676
  YS02001586           JUNCTION    569.03   569.05     0  02:04        1.15        1.16       0.138
  YS02001590           JUNCTION      0.00   318.67     0  02:10           0        0.99       0.017
  YS02001593           JUNCTION      0.00   318.11     0  02:05           0        0.99       0.067
  YS02001596           JUNCTION      0.00   318.01     0  02:05           0        0.99       0.210
  YS02001600           JUNCTION      0.00   318.08     0  02:05           0        0.99       0.705
  YS02001601           JUNCTION   1021.46  1338.87     0  02:02        1.55        2.53       0.355
  YS02001602           JUNCTION      0.00   551.07     0  01:57           0        1.72       0.543
  YS02001605           JUNCTION      0.00   551.28     0  01:57           0        1.64       0.859
  YS02001607           JUNCTION      0.00   551.29     0  01:57           0        1.62       1.231
  YS02001610           JUNCTION      0.00   535.64     0  01:57           0        1.65       1.320
  YS02001613           JUNCTION      0.00   538.94     0  01:57           0        1.35       1.652
  YS02001616           JUNCTION      0.00   539.36     0  01:57           0        1.34       1.444
  YS02001619           JUNCTION    992.29   992.29     0  02:03        1.78        3.06       0.625
  YS02001622           JUNCTION      0.00   953.15     0  01:57           0           3       0.876
  YS02001625           JUNCTION      0.00  1069.35     0  02:04           0        3.02       1.499
  YS02001629           JUNCTION      0.00   933.38     0  01:58           0        2.48       0.817
  YS02001633           JUNCTION    787.01  1456.13     0  01:59        1.17        3.54       0.921
  YS02001641           JUNCTION      0.00  1450.97     0  01:59           0        3.42       0.630
  YS02001644           JUNCTION    679.83  1912.27     0  01:59       0.957        4.35       0.607
  YS02001647           JUNCTION      0.00  1911.54     0  01:59           0        4.25       0.664
  YS02001649           JUNCTION      0.00  2186.41     0  01:59           0        5.09       0.744
  YS02001652           JUNCTION      0.00   890.36     0  02:02           0       0.901       2.588
  YS02001655           JUNCTION      0.15   888.52     0  02:02     0.00443       0.931       1.931
  YS02001658           JUNCTION      0.00   887.83     0  02:02           0       0.949       1.092
  YS02001661           JUNCTION      0.00   836.46     0  02:02           0       0.931       0.379
  YS02001664           JUNCTION    689.53   689.53     0  02:02       0.912       0.912      -0.038
  YS02001745           JUNCTION    424.21   673.47     0  02:01       0.524       0.537       0.609
  YS02001748           JUNCTION      0.04   612.31     0  02:01      0.0013       0.588       1.286
  YS02001751           JUNCTION      0.01   614.68     0  02:01    0.000317       0.588       3.287
  YS02001754           JUNCTION      0.26   615.76     0  02:01     0.00749       0.548       4.306
  YS02001757           JUNCTION      0.00  3483.35     0  02:01           0        7.26       1.341
  YS02001759           JUNCTION    616.41  1431.13     0  02:01       0.765        1.74       1.327
  YS02001762           JUNCTION      0.00   820.39     0  02:00           0           1       2.149
  YS02001765           JUNCTION      0.00   816.81     0  02:00           0        1.02       2.468
  YS02001767           JUNCTION      0.54   815.25     0  02:01      0.0154        1.06       3.466
  YS02001770           JUNCTION    845.17   845.17     0  02:02        1.13        1.15       2.822
  YS02001774           JUNCTION      0.00   465.62     0  02:00           0       0.101      34.127
  YS02001779           JUNCTION      0.01   461.64     0  02:00    0.000144      0.0516      36.050
  YS02001783           JUNCTION      0.00   998.77     0  01:58           0        2.76       0.258
  YS02001784           JUNCTION      1.06  1000.07     0  01:58      0.0305        2.78       0.389
  YS02001786           JUNCTION      0.06   997.60     0  01:58     0.00162        2.77       0.469
  YS02001788           JUNCTION      0.07   978.95     0  02:01     0.00204        2.76       0.488
  YS02001790           JUNCTION      0.15   979.12     0  02:00     0.00446        2.75       0.625
  YS02001791           JUNCTION      0.00   978.96     0  02:01           0        2.73       0.531
  YS02001793           JUNCTION      0.00   979.37     0  02:00           0        2.72       0.556
  YS02001882           JUNCTION      0.00    64.83     0  01:58           0      0.0126       5.923
  YS02001884           JUNCTION      0.00   115.89     0  01:58           0      0.0487       5.371
  YS02001887           JUNCTION    670.17   671.22     0  02:01       0.795       0.829       0.527
  YS02001890           JUNCTION      0.00   671.58     0  02:01           0       0.788       0.660
  YS02001895           JUNCTION      0.00   531.04     0  01:59           0       0.753       0.217
  YS02001898           JUNCTION      0.00   535.72     0  01:59           0       0.752       0.037
  YS02001901           JUNCTION      0.00   544.56     0  01:59           0       0.754       0.435
  YS02001904           JUNCTION      0.00   549.08     0  01:59           0       0.759       0.370
  YS02001907           JUNCTION      0.00  1640.12     0  02:01           0        2.36       0.773
  YS02001910           JUNCTION      0.00  1129.30     0  02:01           0        1.61       0.441
  YS02001915           JUNCTION    690.33  1128.99     0  02:01       0.974        1.66       0.084
  YS02001918           JUNCTION      0.00   741.34     0  01:59           0       0.715      -0.035
  YS02001920           JUNCTION      2.87   738.68     0  01:59      0.0827       0.694       0.023
  YS02001923           JUNCTION      0.04  1023.99     0  01:59     0.00109       0.594      -0.200
  YS02001926           JUNCTION      0.05  1235.42     0  01:59      0.0015       0.572      -0.325
  YS02001929           JUNCTION    349.87   873.05     0  02:00       0.548       0.554      -0.240
  YS02006553           JUNCTION      0.00   677.13     0  02:14           0         1.7       0.702
  YS02006556           JUNCTION      0.00   675.29     0  02:14           0        1.71       0.474
  YS02006558           JUNCTION    843.25  1150.55     0  01:59         1.1        2.79       0.130
  YS02006561           JUNCTION      0.00  1152.24     0  01:59           0        2.76      -0.008
  YS02163301           JUNCTION      0.00   931.39     0  01:58           0        2.45       0.998
  YS02163601           JUNCTION      0.11  1451.88     0  01:59     0.00317        3.46       0.881
  YS02164001           JUNCTION      0.00  1451.72     0  01:59           0        3.43       0.605
  CC-1                 OUTFALL       0.00   683.00     0  00:00           0       0.208       0.000
  CC-2                 OUTFALL       0.00   683.00     0  00:00           0       0.208       0.000
  JK-1                 OUTFALL       0.00  1000.00     0  00:00           0      0.0791       0.000
  JK-2                 OUTFALL       0.00  1000.00     0  00:00           0      0.0791       0.000
  WSC                  OUTFALL       0.00   818.13     0  02:33           0        14.4       0.000
  CC-storage           STORAGE       0.00  3488.77     0  02:01           0        9.36       0.410
  JK-storage           STORAGE       0.00   979.98     0  02:01           0        2.85       0.543
  XR-storage           STORAGE     200.00   200.00     0  00:00        5.76        6.36     -41.886
  
  
  **********************
  Node Surcharge Summary
  **********************
  
  Surcharging occurs when water rises above the top of the highest conduit.
  ---------------------------------------------------------------------
                                               Max. Height   Min. Depth
                                   Hours       Above Crown    Below Rim
  Node                 Type      Surcharged         Meters       Meters
  ---------------------------------------------------------------------
  WS02006109           JUNCTION        1.60          0.016        1.804
  WS02006228           JUNCTION        1.59          0.021        2.179
  WS02006229           JUNCTION        1.62          0.028        2.422
  WS02006232           JUNCTION        1.66          0.051        1.429
  WS02006235           JUNCTION        1.61          0.055        1.235
  WS02006238           JUNCTION        1.63          0.088        1.342
  WS02006239           JUNCTION        1.61          0.068        1.222
  WS02006240           JUNCTION        1.62          0.081        1.309
  WS02006242           JUNCTION        1.70          0.176        0.644
  WS02006243           JUNCTION        1.63          0.134        0.636
  WS02006245           JUNCTION        1.63          0.148        0.702
  WS02006247           JUNCTION        1.65          0.189        0.571
  WS02006248           JUNCTION        1.63          0.141        0.239
  WS02006249           JUNCTION        1.65          0.281        0.109
  WS02006252           JUNCTION        1.99          1.100        0.000
  WS02006256           JUNCTION        2.98          2.050        0.000
  YS02001580           JUNCTION        0.40          0.450        0.000
  YS02001583           JUNCTION        0.41          0.500        0.000
  YS02001586           JUNCTION        0.54          0.510        0.000
  YS02001590           JUNCTION        0.61          0.750        0.000
  YS02001593           JUNCTION        0.62          0.736        0.104
  YS02001596           JUNCTION        0.74          0.971        0.099
  YS02001600           JUNCTION        1.11          1.190        0.000
  YS02001601           JUNCTION        6.22          1.440        0.000
  YS02001602           JUNCTION        6.19          1.270        0.000
  YS02001605           JUNCTION        6.17          1.180        0.000
  YS02001607           JUNCTION        0.73          0.680        0.000
  YS02001610           JUNCTION        0.84          0.680        0.000
  YS02001613           JUNCTION        0.73          0.700        0.000
  YS02001616           JUNCTION        0.65          0.610        0.000
  YS02001619           JUNCTION        0.64          0.610        0.000
  YS02001622           JUNCTION        0.65          0.620        0.000
  YS02001625           JUNCTION        6.07          0.780        0.000
  YS02001629           JUNCTION        0.58          0.470        0.000
  YS02001633           JUNCTION        6.08          1.060        0.000
  YS02001641           JUNCTION        6.06          0.959        0.141
  YS02001644           JUNCTION        6.05          0.920        0.000
  YS02001647           JUNCTION        6.01          0.900        0.000
  YS02001649           JUNCTION        6.02          1.050        0.000
  YS02001652           JUNCTION        5.91          0.906        0.224
  YS02001655           JUNCTION        0.27          0.786        0.414
  YS02001658           JUNCTION        0.09          0.713        0.587
  YS02001661           JUNCTION        0.01          0.303        1.087
  YS02001745           JUNCTION        0.01          0.380        0.970
  YS02001748           JUNCTION        0.01          0.613        0.577
  YS02001751           JUNCTION        0.13          0.775        0.425
  YS02001754           JUNCTION        5.30          0.878        0.272
  YS02001757           JUNCTION        6.01          1.109        0.101
  YS02001759           JUNCTION        6.01          1.115        0.095
  YS02001762           JUNCTION        6.00          1.150        0.000
  YS02001765           JUNCTION        6.00          1.100        0.000
  YS02001767           JUNCTION        6.00          1.030        0.000
  YS02001770           JUNCTION        6.00          0.920        0.000
  YS02001774           JUNCTION        6.00          1.009        0.041
  YS02001779           JUNCTION        2.00          0.680        0.000
  YS02001783           JUNCTION        0.49          1.168        0.432
  YS02001784           JUNCTION        0.49          1.200        0.290
  YS02001786           JUNCTION        0.48          1.361        0.069
  YS02001788           JUNCTION        0.48          1.480        0.000
  YS02001790           JUNCTION        6.02          1.157        0.000
  YS02001791           JUNCTION        6.03          0.840        1.080
  YS02001793           JUNCTION        6.04          0.991        1.609
  YS02001882           JUNCTION        0.36          0.707        0.123
  YS02001884           JUNCTION        0.37          0.728        0.142
  YS02001887           JUNCTION        0.40          0.795        0.155
  YS02001890           JUNCTION        0.41          0.760        0.000
  YS02001895           JUNCTION        0.35          0.582        0.168
  YS02001898           JUNCTION        0.35          0.567        0.173
  YS02001901           JUNCTION        0.39          0.708        0.162
  YS02001904           JUNCTION        0.38          0.677        0.173
  YS02001907           JUNCTION        0.56          0.950        0.000
  YS02001910           JUNCTION        0.43          1.041        0.059
  YS02001915           JUNCTION        0.36          1.000        0.000
  YS02001918           JUNCTION        0.28          0.810        0.000
  YS02001920           JUNCTION        0.30          1.140        0.000
  YS02001923           JUNCTION        0.01          0.820        0.000
  YS02001926           JUNCTION        0.02          0.900        0.000
  YS02001929           JUNCTION        0.01          0.780        0.000
  YS02006553           JUNCTION        0.57          1.075        0.115
  YS02006556           JUNCTION        0.50          1.118        0.232
  YS02006558           JUNCTION        0.49          1.118        0.282
  YS02006561           JUNCTION        0.32          0.982        0.168
  YS02163301           JUNCTION        6.07          1.030        0.000
  YS02163601           JUNCTION        6.08          1.080        0.000
  YS02164001           JUNCTION        6.06          0.966        0.134
  
  
  *********************
  Node Flooding Summary
  *********************
  
  Flooding refers to all water that overflows a node, whether it ponds or not.
  --------------------------------------------------------------------------
                                                             Total   Maximum
                                 Maximum   Time of Max       Flood    Ponded
                        Hours       Rate    Occurrence      Volume     Depth
  Node                 Flooded       LPS   days hr:min    10^6 ltr    Meters
  --------------------------------------------------------------------------
  WS02006252              0.01    245.63      0  00:00       0.000     0.000
  WS02006256              0.02    293.19      0  00:00       0.005     0.000
  YS02001580              0.01     84.80      0  01:57       0.000     0.000
  YS02001583              0.01    110.46      0  01:57       0.000     0.000
  YS02001586              0.32    251.62      0  02:03       0.159     0.000
  YS02001590              0.01      1.36      0  01:57       0.000     0.000
  YS02001600              0.01      4.33      0  01:57       0.000     0.000
  YS02001601              0.47    940.97      0  02:02       0.795     0.000
  YS02001602              0.42     62.31      0  02:10       0.080     0.000
  YS02001605              0.01      0.33      0  02:20       0.000     0.000
  YS02001607              0.01      1.63      0  02:20       0.000     0.000
  YS02001610              0.34    469.66      0  02:04       0.314     0.000
  YS02001613              0.01      2.77      0  02:20       0.000     0.000
  YS02001616              0.01      3.12      0  02:20       0.000     0.000
  YS02001619              0.01      4.81      0  02:20       0.000     0.000
  YS02001622              0.01      2.27      0  02:20       0.000     0.000
  YS02001625              0.31   1069.28      0  02:04       0.542     0.000
  YS02001629              0.07    208.80      0  01:57       0.030     0.000
  YS02001633              0.01      0.77      0  02:20       0.000     0.000
  YS02001644              0.08    537.56      0  02:02       0.069     0.000
  YS02001647              0.01      0.99      0  02:20       0.000     0.000
  YS02001649              0.01     38.24      0  02:01       0.000     0.000
  YS02001762              0.01      9.47      0  02:00       0.000     0.000
  YS02001765              0.01     27.63      0  02:00       0.000     0.000
  YS02001767              0.01     10.05      0  02:00       0.000     0.000
  YS02001770              0.01     25.82      0  02:01       0.000     0.000
  YS02001779              0.05    450.09      0  02:00       0.019     0.000
  YS02001788              0.01    217.11      0  01:59       0.000     0.000
  YS02001790              0.01     23.84      0  01:59       0.000     0.000
  YS02001890              0.09    161.70      0  02:01       0.029     0.000
  YS02001907              0.24   1498.04      0  02:01       0.641     0.000
  YS02001915              0.01     52.40      0  01:59       0.000     0.000
  YS02001918              0.01    266.12      0  02:00       0.004     0.000
  YS02001920              0.01     88.08      0  02:00       0.000     0.000
  YS02001923              0.01    162.99      0  02:00       0.001     0.000
  YS02001926              0.01    526.00      0  01:59       0.004     0.000
  YS02001929              0.01    416.00      0  02:00       0.001     0.000
  YS02163301              0.01      1.59      0  02:20       0.000     0.000
  YS02163601              0.01      0.64      0  02:20       0.000     0.000
  JK-storage              6.02    979.71      0  02:01       2.366     0.000
  
  
  **********************
  Storage Volume Summary
  **********************
  
  ------------------------------------------------------------------------------------------------
                         Average    Avg   Evap  Exfil     Maximum    Max    Time of Max    Maximum
                          Volume   Pcnt   Pcnt   Pcnt      Volume   Pcnt     Occurrence    Outflow
  Storage Unit           1000 m³   Full   Loss   Loss     1000 m³   Full    days hr:min        LPS
  ------------------------------------------------------------------------------------------------
  CC-storage               4.701   73.3    0.0    0.0       6.104   95.2       0  07:39    1783.53
  JK-storage               0.224   76.7    0.0    0.0       0.291  100.0       0  01:58    2300.00
  XR-storage               0.036    2.5    0.0    0.0       0.600   41.7       0  00:00     380.00
  
  
  ***********************
  Outfall Loading Summary
  ***********************
  
  -----------------------------------------------------------
                         Flow       Avg       Max       Total
                         Freq      Flow      Flow      Volume
  Outfall Node           Pcnt       LPS       LPS    10^6 ltr
  -----------------------------------------------------------
  CC-1                   1.32    683.00    683.00       0.208
  CC-2                   1.32    683.00    683.00       0.208
  JK-1                   1.23    347.46   1000.00       0.079
  JK-2                   1.23    347.46   1000.00       0.079
  WSC                   99.92    545.69    818.13      14.375
  -----------------------------------------------------------
  System                21.00   2606.61   3366.35      14.950
  
  
  ********************
  Link Flow Summary
  ********************
  
  -----------------------------------------------------------------------------
                                 Maximum  Time of Max   Maximum    Max/    Max/
                                  |Flow|   Occurrence   |Veloc|    Full    Full
  Link                 Type          LPS  days hr:min     m/sec    Flow   Depth
  -----------------------------------------------------------------------------
  1                    CONDUIT    818.13     0  02:33      3.15    0.28    0.37
  WS02001211WS02001212 CONDUIT    390.85     0  03:36      0.78    0.30    0.64
  WS02001212WS02001213 CONDUIT    392.61     0  03:35      1.32    0.61    0.45
  WS02001213WS02003059 CONDUIT    395.65     0  03:35      0.85    0.65    0.75
  WS02003059WS02003060 CONDUIT    399.94     0  03:35      0.95    0.26    0.63
  WS02003060WS02003069 CONDUIT    816.01     0  02:32      1.80    0.32    0.42
  WS02003066WSF200     CONDUIT    411.84     0  02:31      2.69    0.07    0.19
  WS02003067WS02003066 CONDUIT    411.85     0  02:31      1.04    0.13    0.38
  WS02003069WS02003072 CONDUIT    816.32     0  02:32      1.55    0.39    0.47
  WS02003072WS02003073 CONDUIT    816.32     0  02:33      1.64    1.76    0.45
  WS02004138WS02004139 CONDUIT    395.20     0  00:00      3.65    0.08    0.43
  WS02004139WS02001211 CONDUIT    381.78     0  03:36      0.91    0.48    0.59
  WS02004401WS02004402 CONDUIT    412.12     0  03:23      0.99    0.49    0.77
  WS02004402WS02004403 CONDUIT    412.00     0  03:23      0.99    0.59    0.79
  WS02004403WS02004404 CONDUIT    411.95     0  03:23      0.93    0.30    0.84
  WS02004404WS02004405 CONDUIT    412.13     0  03:23      1.10    4.04    0.88
  WS02004405WS02004406 CONDUIT    412.25     0  03:23      1.03    0.81    0.88
  WS02004406WS02004407 CONDUIT    411.94     0  02:11      0.89    0.18    0.57
  WS02004407WS02004409 CONDUIT    411.90     0  02:11      1.42    0.15    0.42
  WS02004409WS02004410 CONDUIT    411.90     0  02:29      0.91    0.53    0.58
  WS02004410WS02004411 CONDUIT    411.89     0  02:30      0.85    0.56    0.60
  WS02004411WS02004412 CONDUIT    411.88     0  02:37      0.81    0.59    0.61
  WS02004412WS02004413 CONDUIT    411.89     0  02:30      0.70    0.28    0.70
  WS02004413WS02003067 CONDUIT    411.84     0  02:31      0.96    0.18    0.53
  WS02006109WS02006110 CONDUIT    411.78     0  02:02      0.84    0.79    0.94
  WS02006110WS02006113 CONDUIT    411.99     0  02:20      1.03    0.37    0.75
  WS02006111WS02006112 CONDUIT    414.56     0  03:22      1.83    0.20    0.65
  WS02006112WS02006115 CONDUIT    413.04     0  03:22      0.71    0.24    0.78
  WS02006113WS02006111 CONDUIT    423.36     0  02:20      2.25    0.51    0.40
  WS02006115WS02006116 CONDUIT    412.42     0  03:22      0.98    0.53    0.66
  WS02006116WS02004401 CONDUIT    412.20     0  03:22      1.00    0.57    0.74
  WS02006228WS02006109 CONDUIT    411.16     0  02:02      1.06    1.80    1.00
  WS02006229WS02006228 CONDUIT    412.39     0  02:02      1.13    1.37    1.00
  WS02006230WS02006229 CONDUIT    410.68     0  02:02      1.22    9.14    1.00
  WS02006231WS02006230 CONDUIT    400.29     0  02:19      1.37    6.07    0.77
  WS02006232WS02006231 CONDUIT    400.47     0  02:19      1.08    0.84    0.92
  WS02006234WS02006232 CONDUIT    400.45     0  02:19      1.40    0.81    1.00
  WS02006235WS02006234 CONDUIT    401.70     0  02:20      1.29    4.24    0.99
  WS02006238WS02006235 CONDUIT    401.93     0  02:31      1.49    0.90    1.00
  WS02006239WS02006238 CONDUIT    402.17     0  02:19      1.21    1.29    1.00
  WS02006240WS02006239 CONDUIT    401.74     0  01:56      1.31    1.26    1.00
  WS02006242WS02006240 CONDUIT    401.33     0  02:20      1.17    1.59    1.00
  WS02006243WS02006242 CONDUIT    401.16     0  02:20      1.43    0.86    1.00
  WS02006245WS02006243 CONDUIT    401.20     0  01:56      1.45    1.19    1.00
  WS02006247WS02006245 CONDUIT    403.50     0  02:13      1.43    3.20    1.00
  WS02006248WS02006247 CONDUIT    401.13     0  02:20      1.46    0.87    1.00
  WS02006249WS02006248 CONDUIT    403.31     0  02:20      1.40    2.21    1.00
  WS02006251WS02006249 CONDUIT    465.27     0  07:56      1.99    1.34    1.00
  WS02006252WS02006251 CONDUIT    403.28     0  07:56     24.55    1.48    1.00
  WS02006256WS02006235 CONDUIT    288.91     0  00:00      4.23    3.06    1.00
  WSF200WS02003060     CONDUIT    411.84     0  02:31      1.43    0.09    0.30
  YS02001580YS02001583 CONDUIT    131.07     0  01:57      0.80    0.51    1.00
  YS02001583YS02001586 CONDUIT    192.06     0  01:57      0.82    0.29    1.00
  YS02001586YS02001590 CONDUIT    318.67     0  02:10      1.28    0.56    1.00
  YS02001590YS02001593 CONDUIT    318.11     0  02:05      1.13    2.00    1.00
  YS02001593YS02001596 CONDUIT    318.01     0  02:05      1.62    0.50    1.00
  YS02001596YS02001600 CONDUIT    318.08     0  02:05      1.12    0.62    1.00
  YS02001600YS02001601 CONDUIT    317.91     0  02:13      1.12    0.55    1.00
  YS02001601YS02001602 CONDUIT    551.07     0  01:57      1.95    1.99    1.00
  YS02001602YS02001605 CONDUIT    551.28     0  01:57      1.95   11.67    1.00
  YS02001605YS02001607 CONDUIT    551.29     0  01:57      1.95    3.02    1.00
  YS02001607YS02001610 CONDUIT    535.64     0  01:57      0.68    0.51    1.00
  YS02001610YS02001613 CONDUIT    538.94     0  01:57      0.69    0.62    1.00
  YS02001613YS02001616 CONDUIT    539.36     0  01:57      0.69    0.46    1.00
  YS02001616YS02001619 CONDUIT    528.79     0  01:57      0.67    0.92    1.00
  YS02001619YS02001622 CONDUIT    953.15     0  01:57      1.23    1.40    1.00
  YS02001622YS02001625 CONDUIT    934.47     0  01:58      1.19    0.50    1.00
  YS02001625YS02001629 CONDUIT    933.38     0  01:58      1.19    0.44    1.00
  YS02001629YS02163301 CONDUIT    931.39     0  01:58      1.19    1.15    1.00
  YS02001633YS02163601 CONDUIT   1451.77     0  01:59      1.85    1.52    1.00
  YS02001641YS02001644 CONDUIT   1451.81     0  01:59      1.85    4.69    1.00
  YS02001644YS02001647 CONDUIT   1911.54     0  01:59      2.45    1.12    1.00
  YS02001647YS02001649 CONDUIT   1918.13     0  01:59      2.44    1.01    1.00
  YS02001649YS02001757 CONDUIT   2179.52     0  01:59      2.78    1.32    1.00
  YS02001652YS02001649 CONDUIT    892.64     0  02:02      1.14    0.44    1.00
  YS02001655YS02001652 CONDUIT    890.36     0  02:02      1.38    0.43    1.00
  YS02001658YS02001655 CONDUIT    888.37     0  02:02      1.99    0.38    1.00
  YS02001661YS02001658 CONDUIT    887.83     0  02:02      2.42    0.35    1.00
  YS02001664YS02001661 CONDUIT    836.46     0  02:02      2.47    0.26    0.86
  YS02001745YS02001748 CONDUIT    612.26     0  02:01      2.31    0.24    1.00
  YS02001748YS02001751 CONDUIT    614.67     0  02:01      1.79    0.31    1.00
  YS02001751YS02001754 CONDUIT    615.50     0  02:01      1.49    0.30    1.00
  YS02001754YS02001757 CONDUIT    617.33     0  02:01      0.79    0.25    1.00
  YS02001757CaochengTiaoxuchi CONDUIT   3488.77     0  02:01      4.49    1.51    1.00
  YS02001759YS02001757 CONDUIT   1434.11     0  02:01      1.83    1.02    1.00
  YS02001762YS02001759 CONDUIT    821.21     0  02:00      1.05    0.95    1.00
  YS02001765YS02001762 CONDUIT    820.39     0  02:00      1.04    0.77    1.00
  YS02001767YS02001765 CONDUIT    816.81     0  02:00      1.04    1.03    1.00
  YS02001770YS02001767 CONDUIT    814.72     0  02:01      1.04    3.23    1.00
  YS02001774YS02001770 CONDUIT    465.62     0  02:00      0.59    0.30    1.00
  YS02001779YS02001774 CONDUIT    461.64     0  02:00      0.60    0.23    1.00
  YS02001783YS02001784 CONDUIT    999.01     0  01:58      1.99    1.38    1.00
  YS02001784YS02001785 CONDUIT    997.54     0  01:58      1.99    2.32    1.00
  YS02001786YS02001788 CONDUIT    978.88     0  02:01      2.27    1.89    1.00
  YS02001788YS02001790 CONDUIT    978.96     0  02:00      2.36    0.72    1.00
  YS02001790YS02001791 CONDUIT    978.96     0  02:01      2.82    1.07    1.00
  YS02001791YS02001793 CONDUIT    979.37     0  02:00      5.41    0.42    1.00
  YS02001793JiankangQianchi CONDUIT    979.98     0  02:01      1.54    0.08    1.00
  YS02001882YS02001884 CONDUIT     64.83     0  01:58      0.11    0.07    1.00
  YS02001884YS02001887 CONDUIT    115.89     0  01:58      0.15    0.15    1.00
  YS02001887YS02001890 CONDUIT    671.58     0  02:01      0.86    1.15    1.00
  YS02001890YS02001895 CONDUIT    531.04     0  01:59      0.68    0.25    1.00
  YS02001895YS02001898 CONDUIT    535.72     0  01:59      0.68    0.93    1.00
  YS02001898YS02001901 CONDUIT    544.56     0  01:59      0.69    0.35    1.00
  YS02001901YS02001904 CONDUIT    549.08     0  01:59      0.70    0.85    1.00
  YS02001904YS02001907 CONDUIT    551.59     0  01:59      0.70    0.19    1.00
  YS02001907YS02006553 CONDUIT    677.13     0  02:14      0.75    0.80    1.00
  YS02001910YS02001907 CONDUIT   1130.01     0  02:01      1.44    0.64    1.00
  YS02001915YS02001910 CONDUIT   1129.30     0  02:01      1.44    0.56    1.00
  YS02001918YS02001915 CONDUIT    741.34     0  01:59      0.95    0.41    1.00
  YS02001920YS02001918 CONDUIT    735.81     0  01:59      0.94    0.71    1.00
  YS02001923YS02001920 CONDUIT    766.88     0  01:59      1.05    0.34    1.00
  YS02001926YS02001923 CONDUIT   1007.16     0  01:59      1.46    1.44    1.00
  YS02001929YS02001926 CONDUIT    593.55     0  02:00      1.23    0.28    1.00
  YS02006553YS02006556 CONDUIT    675.29     0  02:14      0.86    0.58    1.00
  YS02006556YS02006558 CONDUIT    678.40     0  02:14      0.86    0.54    1.00
  YS02006558YS02006561 CONDUIT   1152.24     0  01:59      4.08    2.55    1.00
  YS02006561YS02001783 CONDUIT    998.77     0  01:58      2.18    0.52    1.00
  YS02163301YS02001633 CONDUIT    931.30     0  01:58      1.19    0.88    1.00
  YS02163601YS02164001 CONDUIT   1451.72     0  01:59      1.85    1.29    1.00
  YS02164001YS02001641 CONDUIT   1450.97     0  01:59      1.85    1.98    1.00
  CC-R1                PUMP       683.00     0  00:00              1.00
  CC-R2                PUMP       683.00     0  00:00              1.00
  CC-S1                PUMP       200.00     0  00:00              1.00
  CC-S2                PUMP       200.00     0  00:00              1.00
  JK-R1                PUMP      1000.00     0  00:00              1.00
  JK-R2                PUMP      1000.00     0  00:00              1.00
  JK-S                 PUMP       300.00     0  00:00              1.00
  XR-1                 PUMP        95.00     0  00:00              1.00
  XR-2                 PUMP        95.00     0  00:00              1.00
  XR-3                 PUMP        95.00     0  00:00              1.00
  XR-4                 PUMP        95.00     0  00:00              1.00
  
  
  ***************************
  Flow Classification Summary
  ***************************
  
  -------------------------------------------------------------------------------------
                      Adjusted    ---------- Fraction of Time in Flow Class ---------- 
                       /Actual         Up    Down  Sub   Sup   Up    Down  Norm  Inlet 
  Conduit               Length    Dry  Dry   Dry   Crit  Crit  Crit  Crit  Ltd   Ctrl  
  -------------------------------------------------------------------------------------
  1                       1.00   0.00  0.00  0.00  0.00  1.00  0.00  0.00  0.18  0.00
  WS02001211WS02001212    1.00   0.00  0.00  0.00  1.00  0.00  0.00  0.00  0.00  0.00
  WS02001212WS02001213    1.00   0.00  0.00  0.00  0.34  0.00  0.66  0.00  0.00  0.00
  WS02001213WS02003059    1.00   0.00  0.00  0.00  0.99  0.00  0.00  0.00  0.00  0.00
  WS02003059WS02003060    1.00   0.00  0.00  0.00  1.00  0.00  0.00  0.00  0.00  0.00
  WS02003060WS02003069    1.00   0.00  0.00  0.00  0.99  0.01  0.00  0.00  0.00  0.00
  WS02003066WSF200        1.00   0.02  0.10  0.00  0.00  0.88  0.00  0.00  0.87  0.00
  WS02003067WS02003066    1.00   0.10  0.02  0.00  0.89  0.00  0.00  0.00  0.00  0.00
  WS02003069WS02003072    1.00   0.00  0.00  0.00  0.99  0.01  0.00  0.00  0.00  0.00
  WS02003072WS02003073    1.00   0.00  0.00  0.00  0.00  0.00  0.00  1.00  0.00  0.00
  WS02004138WS02004139    1.00   0.00  0.00  0.00  0.99  0.01  0.00  0.00  1.00  0.00
  WS02004139WS02001211    1.00   0.00  0.00  0.00  1.00  0.00  0.00  0.00  0.00  0.00
  WS02004401WS02004402    1.00   0.02  0.00  0.00  0.98  0.00  0.00  0.00  0.00  0.00
  WS02004402WS02004403    1.00   0.02  0.00  0.00  0.98  0.00  0.00  0.00  0.00  0.00
  WS02004403WS02004404    1.00   0.00  0.03  0.00  0.97  0.00  0.00  0.00  0.00  0.00
  WS02004404WS02004405    1.00   0.00  0.00  0.00  1.00  0.00  0.00  0.00  0.00  0.00
  WS02004405WS02004406    1.00   0.00  0.00  0.00  1.00  0.00  0.00  0.00  0.00  0.00
  WS02004406WS02004407    1.00   0.00  0.05  0.00  0.95  0.00  0.00  0.00  0.00  0.00
  WS02004407WS02004409    1.00   0.05  0.00  0.00  0.94  0.01  0.00  0.00  0.94  0.00
  WS02004409WS02004410    1.00   0.05  0.00  0.00  0.95  0.00  0.00  0.00  0.02  0.00
  WS02004410WS02004411    1.00   0.05  0.00  0.00  0.95  0.00  0.00  0.00  0.00  0.00
  WS02004411WS02004412    1.00   0.05  0.00  0.00  0.95  0.00  0.00  0.00  0.00  0.00
  WS02004412WS02004413    1.00   0.05  0.00  0.00  0.94  0.00  0.00  0.00  0.01  0.00
  WS02004413WS02003067    1.00   0.06  0.04  0.00  0.00  0.00  0.90  0.00  0.00  0.00
  WS02006109WS02006110    1.00   0.00  0.01  0.00  0.98  0.00  0.01  0.00  0.00  0.00
  WS02006110WS02006113    1.00   0.01  0.01  0.00  0.98  0.00  0.00  0.00  0.00  0.00
  WS02006111WS02006112    1.00   0.02  0.00  0.00  0.98  0.00  0.00  0.00  0.98  0.00
  WS02006112WS02006115    1.00   0.02  0.00  0.00  0.97  0.00  0.00  0.00  0.00  0.00
  WS02006113WS02006111    1.00   0.02  0.00  0.00  0.00  0.98  0.00  0.00  0.10  0.00
  WS02006115WS02006116    1.00   0.02  0.00  0.00  0.97  0.00  0.00  0.01  0.00  0.00
  WS02006116WS02004401    1.00   0.02  0.00  0.00  0.98  0.00  0.00  0.00  0.00  0.00
  WS02006228WS02006109    1.00   0.00  0.00  0.00  1.00  0.00  0.00  0.00  0.00  0.00
  WS02006229WS02006228    1.00   0.00  0.00  0.00  0.99  0.00  0.00  0.01  0.00  0.00
  WS02006230WS02006229    1.00   0.00  0.00  0.00  0.99  0.00  0.00  0.01  0.00  0.00
  WS02006231WS02006230    1.00   0.00  0.00  0.00  0.21  0.00  0.78  0.00  0.00  0.00
  WS02006232WS02006231    1.00   0.00  0.00  0.00  0.99  0.00  0.01  0.00  0.00  0.00
  WS02006234WS02006232    1.00   0.00  0.00  0.00  1.00  0.00  0.00  0.00  0.53  0.00
  WS02006235WS02006234    1.00   0.00  0.00  0.00  0.43  0.00  0.57  0.00  0.00  0.00
  WS02006238WS02006235    1.00   0.00  0.00  0.00  1.00  0.00  0.00  0.00  0.00  0.00
  WS02006239WS02006238    1.00   0.00  0.00  0.00  1.00  0.00  0.00  0.00  0.62  0.00
  WS02006240WS02006239    1.00   0.00  0.00  0.00  0.34  0.00  0.00  0.66  0.01  0.00
  WS02006242WS02006240    1.00   0.00  0.00  0.00  0.99  0.00  0.01  0.00  0.00  0.00
  WS02006243WS02006242    1.00   0.00  0.00  0.00  0.99  0.00  0.00  0.01  0.71  0.00
  WS02006245WS02006243    1.00   0.00  0.00  0.00  0.39  0.00  0.00  0.61  0.00  0.00
  WS02006247WS02006245    1.00   0.00  0.00  0.00  0.99  0.00  0.00  0.01  0.00  0.00
  WS02006248WS02006247    1.00   0.00  0.00  0.00  0.99  0.00  0.00  0.01  0.13  0.00
  WS02006249WS02006248    1.00   0.00  0.00  0.00  0.29  0.00  0.71  0.00  0.00  0.00
  WS02006251WS02006249    1.00   0.00  0.00  0.00  1.00  0.00  0.00  0.00  0.71  0.00
  WS02006252WS02006251    1.00   0.00  0.74  0.00  0.00  0.00  0.26  0.00  0.00  0.00
  WS02006256WS02006235    1.00   0.00  0.00  0.00  1.00  0.00  0.00  0.00  0.00  0.00
  WSF200WS02003060        1.00   0.00  0.02  0.00  0.98  0.00  0.00  0.00  0.68  0.00
  YS02001580YS02001583    1.00   0.24  0.59  0.00  0.17  0.00  0.00  0.00  0.68  0.00
  YS02001583YS02001586    1.00   0.50  0.28  0.00  0.22  0.00  0.00  0.00  0.68  0.00
  YS02001586YS02001590    1.00   0.13  0.00  0.00  0.37  0.04  0.00  0.46  0.33  0.00
  YS02001590YS02001593    1.00   0.13  0.01  0.00  0.09  0.00  0.77  0.00  0.00  0.00
  YS02001593YS02001596    1.00   0.14  0.00  0.00  0.70  0.05  0.00  0.11  0.65  0.00
  YS02001596YS02001600    1.00   0.14  0.00  0.00  0.79  0.00  0.00  0.07  0.01  0.00
  YS02001600YS02001601    1.00   0.13  0.01  0.00  0.86  0.00  0.00  0.00  0.05  0.00
  YS02001601YS02001602    1.00   0.13  0.01  0.00  0.86  0.00  0.00  0.00  0.00  0.00
  YS02001602YS02001605    1.00   0.14  0.00  0.00  0.86  0.00  0.00  0.00  0.00  0.00
  YS02001605YS02001607    1.00   0.14  0.00  0.00  0.86  0.00  0.00  0.00  0.00  0.00
  YS02001607YS02001610    1.00   0.13  0.01  0.00  0.86  0.00  0.00  0.00  0.02  0.00
  YS02001610YS02001613    1.00   0.13  0.00  0.00  0.87  0.00  0.00  0.00  0.01  0.00
  YS02001613YS02001616    1.00   0.13  0.00  0.00  0.87  0.00  0.00  0.00  0.01  0.00
  YS02001616YS02001619    1.00   0.13  0.00  0.00  0.87  0.00  0.00  0.00  0.00  0.00
  YS02001619YS02001622    1.00   0.13  0.00  0.00  0.87  0.00  0.00  0.00  0.00  0.00
  YS02001622YS02001625    1.00   0.13  0.00  0.00  0.87  0.00  0.00  0.00  0.06  0.00
  YS02001625YS02001629    1.00   0.13  0.06  0.00  0.77  0.00  0.04  0.00  0.00  0.00
  YS02001629YS02163301    1.00   0.16  0.01  0.00  0.83  0.00  0.00  0.00  0.00  0.00
  YS02001633YS02163601    1.00   0.00  0.01  0.00  0.99  0.00  0.00  0.00  0.15  0.00
  YS02001641YS02001644    1.00   0.00  0.01  0.00  0.99  0.00  0.00  0.00  0.00  0.00
  YS02001644YS02001647    1.00   0.00  0.18  0.00  0.82  0.00  0.00  0.00  0.00  0.00
  YS02001647YS02001649    1.00   0.00  0.18  0.00  0.80  0.01  0.00  0.00  0.02  0.00
  YS02001649YS02001757    1.00   0.00  0.00  0.00  0.98  0.02  0.00  0.00  0.20  0.00
  YS02001652YS02001649    1.00   0.00  0.00  0.00  0.96  0.04  0.00  0.00  0.18  0.00
  YS02001655YS02001652    1.00   0.00  0.00  0.00  0.77  0.01  0.00  0.23  0.00  0.00
  YS02001658YS02001655    1.00   0.00  0.15  0.00  0.76  0.10  0.00  0.00  0.04  0.00
  YS02001661YS02001658    1.00   0.14  0.00  0.00  0.75  0.10  0.00  0.00  0.01  0.00
  YS02001664YS02001661    1.00   0.13  0.00  0.00  0.83  0.04  0.00  0.00  0.86  0.00
  YS02001745YS02001748    1.00   0.00  0.00  0.00  0.75  0.00  0.00  0.25  0.01  0.00
  YS02001748YS02001751    1.00   0.00  0.00  0.00  0.91  0.09  0.00  0.00  0.13  0.00
  YS02001751YS02001754    1.00   0.00  0.00  0.00  0.76  0.00  0.00  0.24  0.00  0.00
  YS02001754YS02001757    1.00   0.00  0.00  0.00  1.00  0.00  0.00  0.00  0.24  0.00
  YS02001757CaochengTiaoxuchi    1.00   0.00  0.00  0.00  0.98  0.02  0.00  0.00  0.22  0.00
  YS02001759YS02001757    1.00   0.00  0.00  0.00  1.00  0.00  0.00  0.00  0.06  0.00
  YS02001762YS02001759    1.00   0.00  0.00  0.00  1.00  0.00  0.00  0.00  0.05  0.00
  YS02001765YS02001762    1.00   0.00  0.00  0.00  1.00  0.00  0.00  0.00  0.17  0.00
  YS02001767YS02001765    1.00   0.00  0.00  0.00  1.00  0.00  0.00  0.00  0.00  0.00
  YS02001770YS02001767    1.00   0.00  0.00  0.00  1.00  0.00  0.00  0.00  0.00  0.00
  YS02001774YS02001770    1.00   0.00  0.14  0.00  0.86  0.00  0.00  0.00  0.04  0.00
  YS02001779YS02001774    1.00   0.00  0.00  0.00  1.00  0.00  0.00  0.00  0.19  0.00
  YS02001783YS02001784    1.00   0.00  0.19  0.00  0.81  0.00  0.00  0.00  0.00  0.00
  YS02001784YS02001785    1.00   0.00  0.00  0.00  1.00  0.00  0.00  0.00  0.18  0.00
  YS02001786YS02001788    1.00   0.00  0.00  0.00  0.96  0.04  0.00  0.00  0.00  0.00
  YS02001788YS02001790    1.00   0.00  0.00  0.00  0.95  0.05  0.00  0.00  0.20  0.00
  YS02001790YS02001791    1.00   0.00  0.00  0.00  0.77  0.23  0.00  0.00  0.03  0.00
  YS02001791YS02001793    1.00   0.00  0.00  0.00  0.76  0.24  0.00  0.00  0.00  0.00
  YS02001793JiankangQianchi    1.00   0.00  0.00  0.00  0.93  0.06  0.00  0.00  0.22  0.00
  YS02001882YS02001884    1.00   0.16  0.01  0.00  0.83  0.00  0.00  0.00  0.00  0.00
  YS02001884YS02001887    1.00   0.06  0.05  0.00  0.89  0.00  0.00  0.00  0.00  0.00
  YS02001887YS02001890    1.00   0.00  0.00  0.00  0.97  0.00  0.03  0.00  0.00  0.00
  YS02001890YS02001895    1.00   0.00  0.17  0.00  0.82  0.00  0.00  0.00  0.00  0.00
  YS02001895YS02001898    1.00   0.18  0.00  0.00  0.80  0.00  0.02  0.00  0.00  0.00
  YS02001898YS02001901    1.00   0.18  0.00  0.00  0.82  0.00  0.00  0.00  0.01  0.00
  YS02001901YS02001904    1.00   0.18  0.00  0.00  0.82  0.00  0.00  0.00  0.00  0.00
  YS02001904YS02001907    1.00   0.00  0.17  0.00  0.82  0.00  0.00  0.00  0.00  0.00
  YS02001907YS02006553    1.00   0.00  0.02  0.00  0.98  0.00  0.00  0.00  0.00  0.00
  YS02001910YS02001907    1.00   0.00  0.00  0.00  0.97  0.00  0.00  0.03  0.12  0.00
  YS02001915YS02001910    1.00   0.00  0.00  0.00  0.96  0.04  0.00  0.00  0.17  0.00
  YS02001918YS02001915    1.00   0.00  0.01  0.00  0.98  0.02  0.00  0.00  0.78  0.00
  YS02001920YS02001918    1.00   0.00  0.01  0.00  0.99  0.00  0.00  0.00  0.00  0.00
  YS02001923YS02001920    1.00   0.00  0.00  0.00  1.00  0.00  0.00  0.00  0.94  0.00
  YS02001926YS02001923    1.00   0.00  0.07  0.00  0.05  0.00  0.88  0.00  0.00  0.00
  YS02001929YS02001926    1.00   0.00  0.13  0.00  0.87  0.00  0.00  0.00  0.83  0.00
  YS02006553YS02006556    1.00   0.01  0.00  0.00  0.99  0.00  0.00  0.00  0.03  0.00
  YS02006556YS02006558    1.00   0.00  0.00  0.00  1.00  0.00  0.00  0.00  0.00  0.00
  YS02006558YS02006561    1.00   0.19  0.00  0.00  0.05  0.75  0.00  0.00  0.18  0.00
  YS02006561YS02001783    1.00   0.19  0.00  0.00  0.76  0.05  0.00  0.00  0.73  0.00
  YS02163301YS02001633    1.00   0.00  0.16  0.00  0.84  0.00  0.00  0.00  0.00  0.00
  YS02163601YS02164001    1.00   0.00  0.08  0.00  0.92  0.00  0.00  0.00  0.00  0.00
  YS02164001YS02001641    1.00   0.01  0.07  0.00  0.92  0.00  0.00  0.00  0.06  0.00
  
  
  *************************
  Conduit Surcharge Summary
  *************************
  
  ----------------------------------------------------------------------------
                                                           Hours        Hours 
                         --------- Hours Full --------   Above Full   Capacity
  Conduit                Both Ends  Upstream  Dnstream   Normal Flow   Limited
  ----------------------------------------------------------------------------
  WS02003072WS02003073        0.01      0.01      0.01      2.14         0.01
  WS02004404WS02004405        0.01      0.01      0.01      1.99         0.01
  WS02006109WS02006110        0.01      0.01      1.65      0.01         0.01
  WS02006110WS02006113        0.01      0.01      1.63      0.01         0.01
  WS02006111WS02006112        0.01      0.01      1.71      0.01         0.01
  WS02006228WS02006109        1.60      1.65      1.60      1.82         1.60
  WS02006229WS02006228        1.59      1.62      1.59      1.76         1.59
  WS02006230WS02006229        1.70      1.73      1.70      2.35         1.70
  WS02006231WS02006230        0.01      0.01      0.01      2.18         0.01
  WS02006232WS02006231        0.01      0.01      1.66      0.01         0.01
  WS02006234WS02006232        1.56      1.56      1.66      0.01         0.01
  WS02006235WS02006234        0.01      0.01      1.61      2.08         0.01
  WS02006238WS02006235        1.62      1.62      1.68      0.01         0.01
  WS02006239WS02006238        1.63      1.66      1.63      1.79         1.63
  WS02006240WS02006239        1.61      1.63      1.61      1.81         1.61
  WS02006242WS02006240        1.62      1.62      1.72      1.87         0.01
  WS02006243WS02006242        1.64      1.64      1.70      0.01         0.01
  WS02006245WS02006243        1.63      1.64      1.63      1.88         1.63
  WS02006247WS02006245        1.63      1.66      1.63      2.03         1.63
  WS02006248WS02006247        1.64      1.64      1.65      0.01         0.01
  WS02006249WS02006248        1.63      1.63      1.65      2.02         0.01
  WS02006251WS02006249        1.64      1.65      1.65      1.96         1.64
  WS02006252WS02006251        1.99      1.99      1.99      1.99         0.01
  WS02006256WS02006235        2.12      2.12      2.98      0.02         0.01
  YS02001580YS02001583        0.40      0.40      0.44      0.01         0.01
  YS02001583YS02001586        0.41      0.41      0.54      0.01         0.01
  YS02001586YS02001590        0.55      0.55      0.61      0.01         0.01
  YS02001590YS02001593        0.62      0.62      0.63      0.63         0.01
  YS02001593YS02001596        0.63      0.63      0.74      0.01         0.01
  YS02001596YS02001600        0.80      0.80      1.11      0.01         0.01
  YS02001600YS02001601        1.25      1.25      6.22      0.01         0.01
  YS02001601YS02001602        6.19      6.19      6.23      0.78         0.01
  YS02001602YS02001605        6.17      6.17      6.19      1.87         0.04
  YS02001605YS02001607        6.15      6.17      6.15      1.01         0.92
  YS02001607YS02001610        0.73      0.73      0.84      0.01         0.01
  YS02001610YS02001613        0.73      0.73      0.84      0.01         0.01
  YS02001613YS02001616        0.65      0.65      0.73      0.01         0.01
  YS02001616YS02001619        0.64      0.64      0.65      0.01         0.01
  YS02001619YS02001622        0.64      0.64      0.65      0.53         0.46
  YS02001622YS02001625        0.65      0.65      6.07      0.01         0.01
  YS02001625YS02001629        0.58      0.58      6.07      0.01         0.01
  YS02001629YS02163301        6.07      6.07      6.07      0.03         0.10
  YS02001633YS02163601        6.08      6.08      6.08      0.25         0.25
  YS02001641YS02001644        6.05      6.06      6.05      1.09         0.93
  YS02001644YS02001647        6.01      6.01      6.05      0.04         0.01
  YS02001647YS02001649        6.01      6.01      6.02      0.01         0.01
  YS02001649YS02001757        6.01      6.02      6.01      0.15         0.13
  YS02001652YS02001649        6.01      6.01      6.02      0.01         0.01
  YS02001655YS02001652        0.27      0.27      5.91      0.01         0.01
  YS02001658YS02001655        0.09      0.09      0.27      0.01         0.01
  YS02001661YS02001658        0.01      0.01      0.09      0.01         0.01
  YS02001664YS02001661        0.01      0.01      0.02      0.01         0.01
  YS02001745YS02001748        0.01      0.01      0.01      0.01         0.01
  YS02001748YS02001751        0.07      0.07      0.13      0.01         0.01
  YS02001751YS02001754        0.13      0.13      5.30      0.01         0.01
  YS02001754YS02001757        6.00      6.00      6.01      0.01         0.01
  YS02001757CaochengTiaoxuchi        5.95      6.01      5.95      0.24         0.16
  YS02001759YS02001757        6.01      6.01      6.01      0.01         0.02
  YS02001762YS02001759        6.00      6.00      6.01      0.01         0.02
  YS02001765YS02001762        6.00      6.00      6.00      0.01         0.01
  YS02001767YS02001765        6.00      6.00      6.00      0.01         0.03
  YS02001770YS02001767        6.00      6.00      6.00      0.35         0.46
  YS02001774YS02001770        6.00      6.00      6.00      0.01         0.01
  YS02001779YS02001774        1.99      1.99      6.00      0.01         0.01
  YS02001783YS02001784        0.48      0.49      0.49      0.47         0.43
  YS02001784YS02001785        0.48      0.49      0.48      0.65         0.48
  YS02001786YS02001788        0.48      0.48      0.48      0.57         0.48
  YS02001788YS02001790        0.48      0.48      6.02      0.01         0.01
  YS02001790YS02001791        6.02      6.02      6.03      0.28         0.27
  YS02001791YS02001793        6.03      6.03      6.04      0.01         0.01
  YS02001793JiankangQianchi        6.04      6.04      6.22      0.01         0.01
  YS02001882YS02001884        0.36      0.36      0.37      0.01         0.01
  YS02001884YS02001887        0.39      0.39      0.40      0.01         0.01
  YS02001887YS02001890        0.41      0.41      0.42      0.06         0.01
  YS02001890YS02001895        0.35      0.35      0.43      0.01         0.01
  YS02001895YS02001898        0.35      0.35      0.35      0.01         0.01
  YS02001898YS02001901        0.36      0.36      0.39      0.01         0.01
  YS02001901YS02001904        0.38      0.38      0.39      0.01         0.01
  YS02001904YS02001907        0.38      0.38      0.56      0.01         0.01
  YS02001907YS02006553        0.66      0.66      0.70      0.01         0.01
  YS02001910YS02001907        0.43      0.43      0.56      0.01         0.01
  YS02001915YS02001910        0.36      0.36      0.43      0.01         0.01
  YS02001918YS02001915        0.28      0.28      0.36      0.01         0.01
  YS02001920YS02001918        0.28      0.28      0.30      0.01         0.01
  YS02001923YS02001920        0.24      0.24      0.30      0.01         0.01
  YS02001926YS02001923        0.01      0.01      0.02      0.01         0.01
  YS02001929YS02001926        0.01      0.01      0.02      0.01         0.01
  YS02006553YS02006556        0.50      0.50      0.57      0.01         0.01
  YS02006556YS02006558        0.53      0.53      0.58      0.01         0.01
  YS02006558YS02006561        0.38      0.49      0.38      0.62         0.38
  YS02006561YS02001783        0.32      0.32      0.49      0.01         0.01
  YS02163301YS02001633        6.07      6.07      6.08      0.01         0.01
  YS02163601YS02164001        6.06      6.06      6.08      0.05         0.01
  YS02164001YS02001641        6.06      6.06      6.06      0.49         0.46
  
  
  ***************
  Pumping Summary
  ***************
  
  ---------------------------------------------------------------------------------------------------------
                                                  Min       Avg       Max     Total     Power    % Time Off
                        Percent   Number of      Flow      Flow      Flow    Volume     Usage    Pump Curve
  Pump                 Utilized   Start-Ups       LPS       LPS       LPS  10^6 ltr     Kw-hr    Low   High
  ---------------------------------------------------------------------------------------------------------
  CC-R1                    1.06           1      0.00    683.00    683.00     0.208      3.51    0.0  100.0
  CC-R2                    1.06           1      0.00    683.00    683.00     0.208      3.51    0.0  100.0
  CC-S1                   24.89           3      0.00    200.00    200.00     1.433      6.92    0.0   45.9
  CC-S2                   25.93           4      0.00    200.00    200.00     1.493      7.07    0.0   48.1
  JK-R1                    0.97           2      0.00    347.46   1000.00     0.078      0.47    0.0    0.0
  JK-R2                    0.97           2      0.00    347.46   1000.00     0.078      0.47    0.0    0.0
  JK-S                     0.97           2      0.00    104.30    300.00     0.023      0.44    0.0    0.0
  XR-1                   100.00           1      0.00     95.00     95.00     2.736     68.18    0.0    0.0
  XR-2                   100.00           1      0.00     95.00     95.00     2.736     68.18    0.0    0.0
  XR-3                   100.00           1      0.00     95.00     95.00     2.736     68.18    0.0    0.0
  XR-4                   100.00           1      0.00     95.00     95.00     2.736     68.18    0.0    0.0
  

  Analysis begun on:  Wed Nov  5 16:29:54 2025
  Analysis ended on:  Wed Nov  5 16:29:57 2025
  Total elapsed time: 00:00:03