
  EPA STORM WATER MANAGEMENT MODEL - VERSION 5.2 (Build 5.2.4)
  PYSWMM TOOLKIT API - VERSION v1.0 (2023-11-27)
  ------------------------------------------------------------

  WARNING 04: minimum elevation drop used for Conduit WS02004404WS02004405
  WARNING 03: negative offset ignored for Link YS02001904YS02001907
  
  ****************
  Analysis Options
  ****************
  Flow Units ............... LPS
  Process Models:
    Rainfall/Runoff ........ YES
    RDII ................... NO
    Snowmelt ............... NO
    Groundwater ............ NO
    Flow Routing ........... YES
    Ponding Allowed ........ NO
    Water Quality .......... NO
  Infiltration Method ...... HORTON
  Flow Routing Method ...... DYNWAVE
  Surcharge Method ......... EXTRAN
  Starting Date ............ 08/28/2015 08:00:00
  Ending Date .............. 08/28/2015 16:00:00
  Antecedent Dry Days ...... 8.0
  Report Time Step ......... 00:01:00
  Wet Time Step ............ 00:01:00
  Dry Time Step ............ 00:01:00
  Routing Time Step ........ 30.00 sec
  Variable Time Step ....... YES
  Maximum Trials ........... 8
  Number of Threads ........ 4
  Head Tolerance ........... 0.001500 m
  
  
  **************************        Volume         Depth
  Runoff Quantity Continuity     hectare-m            mm
  **************************     ---------       -------
  Initial LID Storage ......         0.049         1.488
  Total Precipitation ......         2.189        66.007
  Evaporation Loss .........         0.000         0.000
  Infiltration Loss ........         0.078         2.359
  Surface Runoff ...........         1.624        48.965
  Final Storage ............         0.537        16.190
  Continuity Error (%) .....        -0.029
  
  
  **************************        Volume        Volume
  Flow Routing Continuity        hectare-m      10^6 ltr
  **************************     ---------     ---------
  Dry Weather Inflow .......         0.602         6.020
  Wet Weather Inflow .......         1.624        16.239
  Groundwater Inflow .......         0.000         0.000
  RDII Inflow ..............         0.000         0.000
  External Inflow ..........         0.105         1.045
  External Outflow .........         1.622        16.222
  Flooding Loss ............         0.749         7.494
  Evaporation Loss .........         0.000         0.000
  Exfiltration Loss ........         0.000         0.000
  Initial Stored Volume ....         0.303         3.031
  Final Stored Volume ......         0.723         7.234
  Continuity Error (%) .....       -17.519
  
  
  *************************
  Highest Continuity Errors
  *************************
  Node YS02001774 (22.12%)
  Node WS02006256 (-7.12%)
  Node YS02001884 (4.63%)
  Node YS02001583 (-4.56%)
  Node YS02001754 (2.87%)
  
  
  ***************************
  Time-Step Critical Elements
  ***************************
  Link WS02006238WS02006235 (39.91%)
  Link WS02006235WS02006234 (13.50%)
  Link WS02006252WS02006251 (12.61%)
  Link WS02003066WSF200 (12.44%)
  Link WS02001212WS02001213 (4.87%)
  
  
  ********************************
  Highest Flow Instability Indexes
  ********************************
  Link WS02006113WS02006111 (45)
  Link WS02006256WS02006235 (35)
  Link WS02006111WS02006112 (21)
  Link YS02001602YS02001605 (21)
  Link WS02006238WS02006235 (20)
  
  
  *********************************
  Most Frequent Nonconverging Nodes
  *********************************
  Node CC-1 (10.48%)
  Node CC-2 (10.48%)
  Node JK-1 (10.48%)
  Node JK-2 (10.48%)
  Node WSC (10.48%)
  
  
  *************************
  Routing Time Step Summary
  *************************
  Minimum Time Step           :     0.00 sec
  Average Time Step           :     2.68 sec
  Maximum Time Step           :     6.46 sec
  % of Time in Steady State   :     0.00
  Average Iterations per Step :     3.36
  % of Steps Not Converging   :    10.48
  Time Step Frequencies       :
     30.000 - 13.228 sec      :     0.00 %
     13.228 -  5.833 sec      :     8.17 %
      5.833 -  2.572 sec      :    43.71 %
      2.572 -  1.134 sec      :    28.96 %
      1.134 -  0.500 sec      :    19.16 %
  
  
  ***************************
  Subcatchment Runoff Summary
  ***************************
  
  ------------------------------------------------------------------------------------------------------------------------------
                            Total      Total      Total      Total     Imperv       Perv      Total       Total     Peak  Runoff
                           Precip      Runon       Evap      Infil     Runoff     Runoff     Runoff      Runoff   Runoff   Coeff
  Subcatchment                 mm         mm         mm         mm         mm         mm         mm    10^6 ltr      LPS
  ------------------------------------------------------------------------------------------------------------------------------
  sub60                     66.01       0.00       0.00       1.40      43.90       4.72      48.62        0.64   409.70   0.737
  sub61                     66.01       0.00       0.00       2.15      43.86       7.03      50.89        0.93   599.04   0.771
  sub62                     66.01       0.00       0.00       0.95      46.76       3.20      49.97        1.37   820.13   0.757
  sub63                     66.01       0.00       0.00       3.94      37.57      11.73      49.30        1.12   687.02   0.747
  sub64                     66.01       0.00       0.00       1.89      42.78       5.82      48.60        1.17   677.61   0.736
  sub65                     66.01       0.00       0.00       1.73      46.17       5.32      51.49        1.42   796.52   0.780
  sub66                     66.01       0.00       0.00       4.61      36.33      10.56      46.89        2.19  1058.37   0.710
  sub67                     66.01       0.00       0.00       0.94      47.94       3.32      51.26        0.95   631.74   0.777
  sub68                     66.01       0.00       0.00       1.65      42.34       5.39      47.73        1.31   817.94   0.723
  sub69                     66.01       0.00       0.00       1.52      44.38       6.33      50.71        1.88  1029.17   0.768
  sub70                     66.01       0.00       0.00       5.11      35.56      13.26      48.82        1.41   614.93   0.740
  sub71                     66.01       0.00       0.00       0.88      42.48       2.90      45.38        1.19   682.78   0.687
  sub72                     66.01       0.00       0.00       0.84      45.89       2.70      48.58        0.67   356.98   0.736
  

  ***********************
  LID Performance Summary
  ***********************

  --------------------------------------------------------------------------------------------------------------------
                                         Total      Evap     Infil   Surface    Drain    Initial     Final  Continuity
                                        Inflow      Loss      Loss   Outflow   Outflow   Storage   Storage       Error
  Subcatchment      LID Control             mm        mm        mm        mm        mm        mm        mm           %
  --------------------------------------------------------------------------------------------------------------------
  sub60             GreenRoof            66.01      0.00      0.00      0.00      0.00      7.05     73.10       -0.06
  sub61             GreenRoof            66.01      0.00      0.00      0.00      0.00      7.05     73.10       -0.06
  sub62             GreenRoof            66.01      0.00      0.00      0.00      0.00      7.05     73.10       -0.06
  sub63             GreenRoof            66.01      0.00      0.00      0.00      0.00      7.05     73.10       -0.06
  sub64             GreenRoof            66.01      0.00      0.00      0.00      0.00      7.05     73.10       -0.06
  sub65             GreenRoof            66.01      0.00      0.00      0.00      0.00      7.05     73.10       -0.06
  sub66             GreenRoof            66.01      0.00      0.00      0.00      0.00      7.05     73.10       -0.06
  sub67             GreenRoof            66.01      0.00      0.00      0.00      0.00      7.05     73.10       -0.06
  sub68             GreenRoof            66.01      0.00      0.00      0.00      0.00      7.05     73.10       -0.06
  sub69             GreenRoof            66.01      0.00      0.00      0.00      0.00      7.05     73.10       -0.06
  sub70             GreenRoof            66.01      0.00      0.00      0.00      0.00      7.05     73.10       -0.06
  sub71             GreenRoof            66.01      0.00      0.00      0.00      0.00      7.05     73.10       -0.06
  sub72             GreenRoof            66.01      0.00      0.00      0.00      0.00      7.05     73.10       -0.06
  
  ******************
  Node Depth Summary
  ******************
  
  ---------------------------------------------------------------------------------
                                 Average  Maximum  Maximum  Time of Max    Reported
                                   Depth    Depth      HGL   Occurrence   Max Depth
  Node                 Type       Meters   Meters   Meters  days hr:min      Meters
  ---------------------------------------------------------------------------------
  WS02001211           JUNCTION     0.76     0.78     5.62     0  03:18        0.78
  WS02001212           JUNCTION     0.46     0.49     5.55     0  03:17        0.49
  WS02001213           JUNCTION     0.68     0.73     5.49     0  03:17        0.73
  WS02003059           JUNCTION     0.73     0.78     5.47     0  03:16        0.78
  WS02003060           JUNCTION     0.39     0.47     5.41     0  03:16        0.47
  WS02003066           JUNCTION     0.17     0.27     5.82     0  03:15        0.27
  WS02003067           JUNCTION     0.46     0.65     5.97     0  03:15        0.65
  WS02003069           JUNCTION     0.43     0.54     5.12     0  03:16        0.54
  WS02003072           JUNCTION     0.50     0.60     4.97     0  03:17        0.60
  WS02003073           JUNCTION     0.30     0.37     4.43     0  03:18        0.37
  WS02004138           JUNCTION     0.19     0.20     7.45     0  00:00        0.19
  WS02004139           JUNCTION     0.71     0.73     5.64     0  03:19        0.73
  WS02004401           JUNCTION     0.53     0.75     6.75     0  02:02        0.75
  WS02004402           JUNCTION     0.57     0.78     6.74     0  02:02        0.78
  WS02004403           JUNCTION     0.59     0.80     6.73     0  02:03        0.80
  WS02004404           JUNCTION     0.67     0.88     6.73     0  02:03        0.88
  WS02004405           JUNCTION     0.66     0.88     6.73     0  02:03        0.87
  WS02004406           JUNCTION     0.68     0.88     6.71     0  02:03        0.88
  WS02004407           JUNCTION     0.15     0.26     6.57     0  02:04        0.26
  WS02004409           JUNCTION     0.33     0.57     6.34     0  03:11        0.57
  WS02004410           JUNCTION     0.36     0.59     6.31     0  03:11        0.59
  WS02004411           JUNCTION     0.38     0.61     6.29     0  03:14        0.61
  WS02004412           JUNCTION     0.41     0.62     6.26     0  03:12        0.62
  WS02004413           JUNCTION     0.57     0.79     6.26     0  03:15        0.79
  WS02006109           JUNCTION     0.59     0.83     7.45     0  02:10        0.83
  WS02006110           JUNCTION     0.60     0.82     7.41     0  02:10        0.82
  WS02006111           JUNCTION     0.15     0.25     6.96     0  02:01        0.25
  WS02006112           JUNCTION     0.68     0.93     6.82     0  02:01        0.93
  WS02006113           JUNCTION     0.23     0.39     7.29     0  02:08        0.39
  WS02006115           JUNCTION     0.42     0.65     6.78     0  02:02        0.65
  WS02006116           JUNCTION     0.50     0.73     6.77     0  03:09        0.73
  WS02006228           JUNCTION     0.57     0.84     7.49     0  02:10        0.84
  WS02006229           JUNCTION     0.54     0.82     7.52     0  02:10        0.82
  WS02006230           JUNCTION     0.52     0.86     7.60     0  02:10        0.86
  WS02006231           JUNCTION     0.34     0.60     7.72     0  02:56        0.60
  WS02006232           JUNCTION     0.46     0.75     7.79     0  02:09        0.75
  WS02006234           JUNCTION     0.38     0.71     7.87     0  02:12        0.71
  WS02006235           JUNCTION     0.41     0.76     7.93     0  02:45        0.76
  WS02006238           JUNCTION     0.43     0.81     7.95     0  02:09        0.80
  WS02006239           JUNCTION     0.41     0.81     8.02     0  02:08        0.80
  WS02006240           JUNCTION     0.38     0.79     8.08     0  02:12        0.79
  WS02006242           JUNCTION     0.45     0.90     8.17     0  02:04        0.90
  WS02006243           JUNCTION     0.37     0.84     8.26     0  02:14        0.84
  WS02006245           JUNCTION     0.38     0.86     8.34     0  02:09        0.85
  WS02006247           JUNCTION     0.40     0.89     8.39     0  02:14        0.89
  WS02006248           JUNCTION     0.37     0.86     8.44     0  02:12        0.85
  WS02006249           JUNCTION     0.40     0.89     8.49     0  02:07        0.89
  WS02006251           JUNCTION     0.40     0.91     8.58     0  02:12        0.91
  WS02006252           JUNCTION     0.29     1.50     9.74     0  00:00        0.59
  WS02006256           JUNCTION     0.64     2.35     9.28     0  00:00        2.35
  WSF200               JUNCTION     0.14     0.25     5.48     0  03:15        0.25
  YS02001580           JUNCTION     0.09     1.05     9.59     0  02:04        0.77
  YS02001583           JUNCTION     0.12     1.02     9.51     0  02:04        0.82
  YS02001586           JUNCTION     0.19     1.13     9.30     0  02:04        1.13
  YS02001590           JUNCTION     0.28     1.40     9.26     0  02:04        1.38
  YS02001593           JUNCTION     0.22     1.34     9.21     0  02:04        1.29
  YS02001596           JUNCTION     0.41     1.69     9.11     0  02:04        1.65
  YS02001600           JUNCTION     0.65     1.87     9.00     0  02:04        1.86
  YS02001601           JUNCTION     0.91     2.06     8.90     0  02:03        2.06
  YS02001602           JUNCTION     0.82     1.87     8.77     0  02:04        1.87
  YS02001605           JUNCTION     0.80     1.78     8.68     0  02:21        1.77
  YS02001607           JUNCTION     0.80     1.65     8.49     0  02:21        1.64
  YS02001610           JUNCTION     0.84     1.68     8.48     0  02:07        1.68
  YS02001613           JUNCTION     0.80     1.66     8.50     0  02:11        1.65
  YS02001616           JUNCTION     0.74     1.61     8.52     0  02:08        1.61
  YS02001619           JUNCTION     0.72     1.61     8.54     0  02:08        1.61
  YS02001622           JUNCTION     0.73     1.56     8.47     0  02:08        1.56
  YS02001625           JUNCTION     0.99     1.78     8.38     0  02:07        1.78
  YS02001629           JUNCTION     1.02     1.85     8.40     0  02:08        1.85
  YS02001633           JUNCTION     1.10     2.08     8.53     0  02:08        2.08
  YS02001641           JUNCTION     1.09     1.98     8.42     0  02:09        1.94
  YS02001644           JUNCTION     1.09     1.92     8.35     0  02:09        1.92
  YS02001647           JUNCTION     0.90     1.73     8.34     0  02:12        1.71
  YS02001649           JUNCTION     1.07     1.93     8.32     0  02:12        1.91
  YS02001652           JUNCTION     0.89     1.88     8.47     0  02:09        1.74
  YS02001655           JUNCTION     0.69     1.78     8.63     0  02:09        1.52
  YS02001658           JUNCTION     0.46     1.29     8.43     0  02:11        1.26
  YS02001661           JUNCTION     0.26     1.06     8.47     0  02:11        1.03
  YS02001664           JUNCTION     0.05     0.48     8.40     0  02:11        0.47
  YS02001745           JUNCTION     0.16     0.74     8.25     0  02:11        0.74
  YS02001748           JUNCTION     0.49     1.45     8.53     0  02:11        1.45
  YS02001751           JUNCTION     0.65     1.56     8.44     0  02:11        1.56
  YS02001754           JUNCTION     0.86     1.72     8.32     0  02:11        1.72
  YS02001757           JUNCTION     1.17     1.95     8.21     0  02:12        1.95
  YS02001759           JUNCTION     1.08     1.94     8.31     0  02:13        1.94
  YS02001762           JUNCTION     1.05     1.94     8.34     0  02:13        1.94
  YS02001765           JUNCTION     1.01     1.90     8.35     0  02:13        1.90
  YS02001767           JUNCTION     0.98     1.88     8.37     0  02:13        1.88
  YS02001770           JUNCTION     0.98     1.95     8.44     0  02:08        1.90
  YS02001774           JUNCTION     1.04     2.05     8.47     0  02:08        1.96
  YS02001779           JUNCTION     0.80     1.68     8.37     0  02:08        1.68
  YS02001783           JUNCTION     0.51     1.60     7.74     0  02:08        1.50
  YS02001784           JUNCTION     0.56     1.53     7.60     0  02:08        1.48
  YS02001786           JUNCTION     0.56     1.36     7.39     0  02:08        1.36
  YS02001788           JUNCTION     0.58     1.20     7.18     0  02:08        1.20
  YS02001790           JUNCTION     0.84     1.35     6.99     0  02:08        1.35
  YS02001791           JUNCTION     0.95     2.72     8.19     0  07:50        2.72
  YS02001793           JUNCTION     1.46     2.98     7.82     0  07:50        2.98
  YS02001882           JUNCTION     0.28     1.83     8.55     0  02:08        1.83
  YS02001884           JUNCTION     0.37     1.93     8.55     0  02:08        1.93
  YS02001887           JUNCTION     0.45     2.00     8.54     0  02:08        2.00
  YS02001890           JUNCTION     0.48     1.81     8.32     0  02:08        1.81
  YS02001895           JUNCTION     0.25     1.75     8.50     0  02:08        1.75
  YS02001898           JUNCTION     0.26     1.77     8.51     0  02:08        1.77
  YS02001901           JUNCTION     0.38     1.87     8.48     0  02:08        1.87
  YS02001904           JUNCTION     0.36     1.85     8.48     0  02:08        1.85
  YS02001907           JUNCTION     0.68     1.96     8.25     0  02:08        1.96
  YS02001910           JUNCTION     0.47     1.98     8.48     0  02:08        1.93
  YS02001915           JUNCTION     0.28     1.92     8.64     0  02:08        1.88
  YS02001918           JUNCTION     0.15     1.81     8.88     0  02:08        1.81
  YS02001920           JUNCTION     0.22     2.14     9.15     0  02:08        2.03
  YS02001923           JUNCTION     0.11     2.03     9.29     0  02:08        1.92
  YS02001926           JUNCTION     0.14     1.90     9.35     0  02:08        1.90
  YS02001929           JUNCTION     0.07     1.75     9.44     0  02:08        1.65
  YS02006553           JUNCTION     0.68     2.11     8.39     0  02:08        2.11
  YS02006556           JUNCTION     0.65     2.16     8.47     0  02:08        2.16
  YS02006558           JUNCTION     0.69     2.16     8.43     0  02:08        2.16
  YS02006561           JUNCTION     0.16     1.24     7.90     0  02:08        1.11
  YS02163301           JUNCTION     1.05     1.98     8.49     0  02:08        1.98
  YS02163601           JUNCTION     1.14     2.06     8.46     0  02:09        2.05
  YS02164001           JUNCTION     1.08     1.99     8.45     0  02:09        1.92
  CC-1                 OUTFALL      0.00     0.00     0.00     0  00:00        0.00
  CC-2                 OUTFALL      0.00     0.00     0.00     0  00:00        0.00
  JK-1                 OUTFALL      0.00     0.00     0.00     0  00:00        0.00
  JK-2                 OUTFALL      0.00     0.00     0.00     0  00:00        0.00
  WSC                  OUTFALL      0.30     0.37     1.04     0  03:18        0.37
  CC-storage           STORAGE      1.78     2.30     7.80     0  02:38        2.30
  JK-storage           STORAGE      4.87     5.80     6.60     0  01:57        5.80
  XR-storage           STORAGE      0.22     5.00     3.00     0  00:00        4.91
  
  
  *******************
  Node Inflow Summary
  *******************
  
  -------------------------------------------------------------------------------------------------
                                  Maximum  Maximum                  Lateral       Total        Flow
                                  Lateral    Total  Time of Max      Inflow      Inflow     Balance
                                   Inflow   Inflow   Occurrence      Volume      Volume       Error
  Node                 Type           LPS      LPS  days hr:min    10^6 ltr    10^6 ltr     Percent
  -------------------------------------------------------------------------------------------------
  WS02001211           JUNCTION      7.35   389.13     0  02:35       0.212        11.1       0.349
  WS02001212           JUNCTION      0.00   390.86     0  02:36           0        11.1       0.208
  WS02001213           JUNCTION      0.00   392.62     0  02:35           0        11.1       0.239
  WS02003059           JUNCTION      0.00   395.64     0  03:40           0          11       0.329
  WS02003060           JUNCTION     16.53   816.07     0  03:15       0.476        15.7       0.140
  WS02003066           JUNCTION      0.00   411.86     0  03:15           0        4.23       0.036
  WS02003067           JUNCTION      0.00   411.86     0  03:15           0        4.23       0.102
  WS02003069           JUNCTION      0.32   816.37     0  03:16     0.00922        15.7       0.149
  WS02003072           JUNCTION      0.00   816.35     0  03:17           0        15.7       0.193
  WS02003073           JUNCTION      1.82   818.16     0  03:17      0.0524        15.7       0.209
  WS02004138           JUNCTION      0.00   380.00     0  00:00           0        10.9       0.059
  WS02004139           JUNCTION      0.32   395.52     0  00:00     0.00924        10.9       0.408
  WS02004401           JUNCTION      0.00   412.34     0  02:02           0        4.34       0.239
  WS02004402           JUNCTION      0.00   412.20     0  02:02           0        4.33       0.242
  WS02004403           JUNCTION      0.00   412.26     0  02:03           0        4.32       0.236
  WS02004404           JUNCTION      0.16   412.33     0  02:03     0.00467        4.31       0.218
  WS02004405           JUNCTION      0.04   412.35     0  02:03      0.0011         4.3       0.271
  WS02004406           JUNCTION      0.00   412.38     0  02:03           0        4.29       0.487
  WS02004407           JUNCTION      0.00   412.12     0  02:03           0        4.27       0.026
  WS02004409           JUNCTION      0.00   412.03     0  02:04           0        4.27       0.068
  WS02004410           JUNCTION      0.00   411.94     0  03:13           0        4.27       0.112
  WS02004411           JUNCTION      0.00   411.91     0  02:23           0        4.26       0.140
  WS02004412           JUNCTION      0.00   411.93     0  03:14           0        4.26       0.186
  WS02004413           JUNCTION      0.00   411.90     0  03:14           0        4.25       0.325
  WS02006109           JUNCTION      1.23   411.71     0  02:10      0.0354        4.37      -0.142
  WS02006110           JUNCTION      0.00   411.71     0  03:24           0        4.38       0.144
  WS02006111           JUNCTION      0.00   423.58     0  01:58           0        4.37       0.020
  WS02006112           JUNCTION      0.00   413.96     0  02:01           0        4.37       0.408
  WS02006113           JUNCTION      0.00   412.00     0  01:58           0        4.37       0.036
  WS02006115           JUNCTION      0.00   412.56     0  02:02           0        4.35       0.152
  WS02006116           JUNCTION      0.00   412.38     0  02:02           0        4.34       0.115
  WS02006228           JUNCTION      0.00   410.51     0  02:10           0        4.33      -0.077
  WS02006229           JUNCTION      0.00   410.48     0  02:02           0        4.34       0.188
  WS02006230           JUNCTION     10.28   410.61     0  02:10       0.296        4.34       0.133
  WS02006231           JUNCTION      0.00   400.34     0  02:09           0        4.04      -0.179
  WS02006232           JUNCTION      0.00   400.33     0  02:09           0        4.06       0.410
  WS02006234           JUNCTION      0.00   401.52     0  02:09           0        4.05      -0.268
  WS02006235           JUNCTION      0.00   402.04     0  02:12           0        4.07       0.362
  WS02006238           JUNCTION      0.00   401.14     0  02:07           0        4.02      -0.836
  WS02006239           JUNCTION      0.00   401.43     0  02:09           0        3.99      -0.542
  WS02006240           JUNCTION      0.00   400.96     0  02:53           0        3.98      -0.162
  WS02006242           JUNCTION      0.00   401.69     0  03:05           0        3.98       0.030
  WS02006243           JUNCTION      0.00   401.11     0  02:07           0        3.97      -0.318
  WS02006245           JUNCTION      0.00   403.16     0  02:06           0           4       0.923
  WS02006247           JUNCTION      0.00   400.96     0  02:12           0           4       0.012
  WS02006248           JUNCTION      0.00   405.17     0  06:53           0        4.01       0.026
  WS02006249           JUNCTION      0.00   473.76     0  02:26           0        4.05       0.968
  WS02006251           JUNCTION      0.08   404.67     0  05:06     0.00222        4.05      -0.019
  WS02006252           JUNCTION      0.00   400.00     0  00:00           0        4.03      -0.184
  WS02006256           JUNCTION      0.00   300.00     0  00:00           0      0.0244      -6.646
  WSF200               JUNCTION      0.00   411.86     0  03:15           0        4.23       0.018
  YS02001580           JUNCTION      0.00    76.75     0  02:04           0     0.00405       1.883
  YS02001583           JUNCTION      0.00   137.01     0  02:03           0      0.0152      -4.364
  YS02001586           JUNCTION    614.93   614.96     0  02:15        1.41        1.42       0.076
  YS02001590           JUNCTION      0.00   318.00     0  02:10           0         1.2       0.040
  YS02001593           JUNCTION      0.00   318.18     0  02:26           0         1.2       0.025
  YS02001596           JUNCTION      0.00   318.13     0  02:10           0        1.21      -0.048
  YS02001600           JUNCTION      0.00   318.27     0  02:26           0        1.23       0.296
  YS02001601           JUNCTION   1029.17  1346.75     0  02:14        1.88        3.12       0.286
  YS02001602           JUNCTION      0.00   498.12     0  02:03           0        2.14       0.421
  YS02001605           JUNCTION      0.00   497.45     0  02:03           0        2.01       0.660
  YS02001607           JUNCTION      0.00   496.39     0  02:03           0        2.02       0.791
  YS02001610           JUNCTION      0.00   530.40     0  02:15           0        2.12       0.769
  YS02001613           JUNCTION      0.00   495.24     0  02:03           0        1.81       0.898
  YS02001616           JUNCTION      0.00   496.74     0  02:02           0        1.84       0.719
  YS02001619           JUNCTION   1058.37  1058.37     0  02:15        2.19        3.98       0.311
  YS02001622           JUNCTION      0.00   933.80     0  02:07           0        3.94       0.475
  YS02001625           JUNCTION      0.00  1142.77     0  02:14           0        4.06       0.994
  YS02001629           JUNCTION      0.00   935.62     0  02:07           0        3.21       0.481
  YS02001633           JUNCTION    796.72  1367.84     0  02:07        1.42         4.5       0.706
  YS02001641           JUNCTION      0.00  1364.93     0  02:07           0        4.33       0.485
  YS02001644           JUNCTION    677.65  1736.28     0  02:08        1.17        5.47       0.464
  YS02001647           JUNCTION      0.00  1738.10     0  02:08           0        5.29       0.476
  YS02001649           JUNCTION      0.00  1937.11     0  02:07           0        6.38       0.572
  YS02001652           JUNCTION      0.00   705.69     0  02:13           0        1.16       1.663
  YS02001655           JUNCTION      0.15   704.45     0  02:13     0.00443        1.17       1.379
  YS02001658           JUNCTION      0.00   701.88     0  02:13           0        1.16       0.501
  YS02001661           JUNCTION      0.00   837.88     0  02:12           0        1.14      -0.023
  YS02001664           JUNCTION    687.02   687.02     0  02:13        1.12        1.12      -0.033
  YS02001745           JUNCTION    409.70   409.70     0  02:13       0.639       0.655       0.203
  YS02001748           JUNCTION      0.04   474.43     0  02:10      0.0013       0.675       0.694
  YS02001751           JUNCTION      0.01   414.36     0  02:12    0.000317       0.685       2.181
  YS02001754           JUNCTION      0.26   414.35     0  02:12     0.00749       0.691       2.955
  YS02001757           JUNCTION      0.00  3143.61     0  02:11           0         9.1       1.027
  YS02001759           JUNCTION    599.08  1264.56     0  02:13       0.935        2.17       1.041
  YS02001762           JUNCTION      0.00   694.69     0  02:11           0        1.25       1.648
  YS02001765           JUNCTION      0.00   696.56     0  02:11           0        1.28       1.903
  YS02001767           JUNCTION      0.54   697.46     0  02:11      0.0154        1.31       2.730
  YS02001770           JUNCTION    820.28   820.28     0  02:13        1.37        1.41       2.087
  YS02001774           JUNCTION      0.00   264.26     0  02:08           0        0.11      28.401
  YS02001779           JUNCTION      0.01   265.31     0  02:08    0.000144      0.0645      21.541
  YS02001783           JUNCTION      0.00   977.73     0  02:11           0        3.36       0.207
  YS02001784           JUNCTION      1.06   978.32     0  02:12      0.0305        3.39       0.307
  YS02001786           JUNCTION      0.06   978.15     0  02:11     0.00162        3.38       0.400
  YS02001788           JUNCTION      0.07   978.19     0  02:13     0.00204        3.37       0.393
  YS02001790           JUNCTION      0.15   978.77     0  02:12     0.00446        3.36       0.489
  YS02001791           JUNCTION      0.00   978.81     0  02:13           0        3.34       0.438
  YS02001793           JUNCTION      0.00   978.70     0  02:11           0        3.33       0.500
  YS02001882           JUNCTION      0.00    30.25     0  02:05           0      0.0124       3.769
  YS02001884           JUNCTION      0.00    64.57     0  02:05           0      0.0484       4.854
  YS02001887           JUNCTION    632.19   633.16     0  02:13       0.966           1       0.426
  YS02001890           JUNCTION      0.00   633.55     0  02:13           0       0.959       0.515
  YS02001895           JUNCTION      0.00   516.70     0  02:15           0       0.931       0.155
  YS02001898           JUNCTION      0.00   516.75     0  02:15           0        0.93      -0.036
  YS02001901           JUNCTION      0.00   516.37     0  02:15           0       0.933       0.323
  YS02001904           JUNCTION      0.00   516.67     0  02:15           0       0.937       0.264
  YS02001907           JUNCTION      0.00  1598.96     0  02:13           0        2.87       0.631
  YS02001910           JUNCTION      0.00  1085.95     0  02:13           0        1.94       0.370
  YS02001915           JUNCTION    682.80  1085.36     0  02:13        1.19        1.98       0.068
  YS02001918           JUNCTION      0.00   448.47     0  02:09           0       0.821       0.024
  YS02001920           JUNCTION      2.87   447.02     0  02:09      0.0827       0.804       0.098
  YS02001923           JUNCTION      0.04   497.06     0  02:08     0.00109       0.705      -0.149
  YS02001926           JUNCTION      0.05   602.28     0  02:08      0.0015       0.683      -0.304
  YS02001929           JUNCTION    356.98   426.25     0  02:08       0.668        0.67      -0.054
  YS02006553           JUNCTION      0.00   675.40     0  02:26           0        2.07       0.566
  YS02006556           JUNCTION      0.00   674.86     0  02:27           0        2.08       0.386
  YS02006558           JUNCTION    818.82   978.27     0  02:11        1.34        3.39       0.093
  YS02006561           JUNCTION      0.00   977.10     0  02:12           0        3.36      -0.008
  YS02163301           JUNCTION      0.00   937.47     0  02:07           0        3.21       0.716
  YS02163601           JUNCTION      0.11  1368.64     0  02:07     0.00317        4.36       0.689
  YS02164001           JUNCTION      0.00  1367.61     0  02:07           0        4.34       0.448
  CC-1                 OUTFALL       0.00   683.00     0  00:00           0       0.208       0.000
  CC-2                 OUTFALL       0.00   683.00     0  00:00           0       0.208       0.000
  JK-1                 OUTFALL       0.00  1000.00     0  00:00           0      0.0791       0.000
  JK-2                 OUTFALL       0.00  1000.00     0  00:00           0      0.0791       0.000
  WSC                  OUTFALL       0.00   818.15     0  03:18           0        15.6       0.000
  CC-storage           STORAGE       0.00  3142.51     0  02:11           0          11       0.316
  JK-storage           STORAGE       0.00   980.00     0  02:13           0        3.46       0.476
  XR-storage           STORAGE     200.00   200.00     0  00:00        5.76        6.36     -41.886
  
  
  **********************
  Node Surcharge Summary
  **********************
  
  Surcharging occurs when water rises above the top of the highest conduit.
  ---------------------------------------------------------------------
                                               Max. Height   Min. Depth
                                   Hours       Above Crown    Below Rim
  Node                 Type      Surcharged         Meters       Meters
  ---------------------------------------------------------------------
  WS02006109           JUNCTION        1.49          0.015        1.805
  WS02006228           JUNCTION        1.47          0.014        2.186
  WS02006229           JUNCTION        1.51          0.025        2.425
  WS02006232           JUNCTION        1.61          0.051        1.429
  WS02006235           JUNCTION        1.51          0.054        1.236
  WS02006238           JUNCTION        1.56          0.088        1.342
  WS02006239           JUNCTION        1.52          0.067        1.223
  WS02006240           JUNCTION        1.52          0.078        1.312
  WS02006242           JUNCTION        1.67          0.173        0.647
  WS02006243           JUNCTION        1.55          0.134        0.636
  WS02006245           JUNCTION        1.55          0.146        0.704
  WS02006247           JUNCTION        1.59          0.181        0.579
  WS02006248           JUNCTION        1.54          0.137        0.243
  WS02006249           JUNCTION        1.58          0.194        0.196
  WS02006252           JUNCTION        2.68          1.100        0.000
  WS02006256           JUNCTION        5.86          2.050        0.000
  YS02001580           JUNCTION        0.52          0.450        0.000
  YS02001583           JUNCTION        0.53          0.376        0.124
  YS02001586           JUNCTION        0.73          0.510        0.000
  YS02001590           JUNCTION        0.83          0.750        0.000
  YS02001593           JUNCTION        0.84          0.724        0.116
  YS02001596           JUNCTION        1.04          0.959        0.111
  YS02001600           JUNCTION        1.40          1.190        0.000
  YS02001601           JUNCTION        5.90          1.440        0.000
  YS02001602           JUNCTION        5.09          1.270        0.000
  YS02001605           JUNCTION        5.03          1.179        0.001
  YS02001607           JUNCTION        1.07          0.645        0.035
  YS02001610           JUNCTION        1.23          0.680        0.000
  YS02001613           JUNCTION        1.09          0.657        0.043
  YS02001616           JUNCTION        0.99          0.606        0.004
  YS02001619           JUNCTION        0.98          0.610        0.000
  YS02001622           JUNCTION        1.00          0.562        0.058
  YS02001625           JUNCTION        4.03          0.780        0.000
  YS02001629           JUNCTION        0.96          0.470        0.000
  YS02001633           JUNCTION        5.30          1.060        0.000
  YS02001641           JUNCTION        5.97          0.985        0.115
  YS02001644           JUNCTION        5.95          0.920        0.000
  YS02001647           JUNCTION        3.95          0.732        0.168
  YS02001649           JUNCTION        5.88          0.930        0.120
  YS02001652           JUNCTION        3.26          0.848        0.282
  YS02001655           JUNCTION        0.88          0.782        0.418
  YS02001658           JUNCTION        0.18          0.292        1.008
  YS02001748           JUNCTION        0.11          0.370        0.820
  YS02001751           JUNCTION        0.78          0.556        0.644
  YS02001754           JUNCTION        2.87          0.666        0.484
  YS02001757           JUNCTION        5.88          0.952        0.258
  YS02001759           JUNCTION        5.87          0.945        0.265
  YS02001762           JUNCTION        5.86          0.935        0.215
  YS02001765           JUNCTION        5.86          0.903        0.197
  YS02001767           JUNCTION        4.79          0.884        0.146
  YS02001770           JUNCTION        4.58          0.920        0.000
  YS02001774           JUNCTION        5.86          1.050        0.000
  YS02001779           JUNCTION        2.34          0.680        0.000
  YS02001783           JUNCTION        0.70          0.801        0.799
  YS02001784           JUNCTION        0.71          0.729        0.761
  YS02001786           JUNCTION        0.70          0.557        0.873
  YS02001788           JUNCTION        0.70          0.400        1.080
  YS02001790           JUNCTION        6.05          0.549        0.608
  YS02001791           JUNCTION        6.06          1.920        0.000
  YS02001793           JUNCTION        6.09          1.983        0.617
  YS02001882           JUNCTION        0.44          0.830        0.000
  YS02001884           JUNCTION        0.45          0.870        0.000
  YS02001887           JUNCTION        0.48          0.950        0.000
  YS02001890           JUNCTION        0.50          0.760        0.000
  YS02001895           JUNCTION        0.43          0.749        0.001
  YS02001898           JUNCTION        0.42          0.740        0.000
  YS02001901           JUNCTION        0.47          0.870        0.000
  YS02001904           JUNCTION        0.46          0.846        0.004
  YS02001907           JUNCTION        0.70          0.950        0.000
  YS02001910           JUNCTION        0.52          0.975        0.125
  YS02001915           JUNCTION        0.43          0.923        0.077
  YS02001918           JUNCTION        0.34          0.810        0.000
  YS02001920           JUNCTION        0.36          1.140        0.000
  YS02001923           JUNCTION        0.01          0.820        0.000
  YS02001926           JUNCTION        0.03          0.900        0.000
  YS02001929           JUNCTION        0.01          0.749        0.031
  YS02006553           JUNCTION        0.72          1.110        0.080
  YS02006556           JUNCTION        0.61          1.119        0.231
  YS02006558           JUNCTION        0.59          1.060        0.340
  YS02006561           JUNCTION        0.39          0.440        0.710
  YS02163301           JUNCTION        4.74          0.976        0.054
  YS02163601           JUNCTION        6.01          1.065        0.015
  YS02164001           JUNCTION        5.81          0.991        0.109
  
  
  *********************
  Node Flooding Summary
  *********************
  
  Flooding refers to all water that overflows a node, whether it ponds or not.
  --------------------------------------------------------------------------
                                                             Total   Maximum
                                 Maximum   Time of Max       Flood    Ponded
                        Hours       Rate    Occurrence      Volume     Depth
  Node                 Flooded       LPS   days hr:min    10^6 ltr    Meters
  --------------------------------------------------------------------------
  WS02006252              0.01    245.63      0  00:00       0.000     0.000
  WS02006256              0.02    293.19      0  00:00       0.005     0.000
  YS02001580              0.01     32.72      0  02:04       0.000     0.000
  YS02001586              0.39    297.34      0  02:15       0.209     0.000
  YS02001590              0.01      3.67      0  02:04       0.000     0.000
  YS02001600              0.01      2.64      0  02:04       0.000     0.000
  YS02001601              0.62    948.53      0  02:14       0.970     0.000
  YS02001602              0.61     62.04      0  02:29       0.124     0.000
  YS02001610              0.45    529.77      0  02:15       0.414     0.000
  YS02001619              0.01      2.37      0  02:08       0.000     0.000
  YS02001625              0.56   1142.63      0  02:14       0.945     0.000
  YS02001629              0.07    111.42      0  02:12       0.017     0.000
  YS02001633              0.01      1.15      0  02:08       0.000     0.000
  YS02001644              0.14    511.09      0  02:13       0.148     0.000
  YS02001770              0.01     35.60      0  02:08       0.000     0.000
  YS02001774              0.01     20.57      0  02:08       0.000     0.000
  YS02001779              0.10    189.85      0  02:08       0.038     0.000
  YS02001791              0.01      0.36      0  07:50       0.000     0.000
  YS02001882              0.01      3.32      0  02:08       0.000     0.000
  YS02001884              0.01      3.72      0  02:08       0.000     0.000
  YS02001887              0.01      2.30      0  02:08       0.000     0.000
  YS02001890              0.12    123.35      0  02:13       0.023     0.000
  YS02001898              0.01      5.14      0  02:08       0.000     0.000
  YS02001901              0.01      3.26      0  02:08       0.000     0.000
  YS02001907              0.29   1440.21      0  02:13       0.791     0.000
  YS02001918              0.01    127.68      0  02:09       0.001     0.000
  YS02001920              0.01     40.20      0  02:08       0.000     0.000
  YS02001923              0.01    113.34      0  02:08       0.000     0.000
  YS02001926              0.01    271.97      0  02:08       0.001     0.000
  CC-storage              0.47    915.19      0  02:38       0.833     0.000
  JK-storage              6.00    979.63      0  02:13       2.972     0.000
  
  
  **********************
  Storage Volume Summary
  **********************
  
  ------------------------------------------------------------------------------------------------
                         Average    Avg   Evap  Exfil     Maximum    Max    Time of Max    Maximum
                          Volume   Pcnt   Pcnt   Pcnt      Volume   Pcnt     Occurrence    Outflow
  Storage Unit           1000 m³   Full   Loss   Loss     1000 m³   Full    days hr:min        LPS
  ------------------------------------------------------------------------------------------------
  CC-storage               4.952   77.3    0.0    0.0       6.410  100.0       0  02:38    1783.53
  JK-storage               0.245   84.0    0.0    0.0       0.291  100.0       0  01:57    2300.00
  XR-storage               0.026    1.8    0.0    0.0       0.600   41.7       0  00:00     380.00
  
  
  ***********************
  Outfall Loading Summary
  ***********************
  
  -----------------------------------------------------------
                         Flow       Avg       Max       Total
                         Freq      Flow      Flow      Volume
  Outfall Node           Pcnt       LPS       LPS    10^6 ltr
  -----------------------------------------------------------
  CC-1                   0.95    683.00    683.00       0.208
  CC-2                   0.95    683.00    683.00       0.208
  JK-1                   0.88    347.46   1000.00       0.079
  JK-2                   0.88    347.46   1000.00       0.079
  WSC                   99.94    569.10    818.15      15.647
  -----------------------------------------------------------
  System                20.72   2630.02   3366.35      16.222
  
  
  ********************
  Link Flow Summary
  ********************
  
  -----------------------------------------------------------------------------
                                 Maximum  Time of Max   Maximum    Max/    Max/
                                  |Flow|   Occurrence   |Veloc|    Full    Full
  Link                 Type          LPS  days hr:min     m/sec    Flow   Depth
  -----------------------------------------------------------------------------
  1                    CONDUIT    818.15     0  03:18      3.15    0.28    0.37
  WS02001211WS02001212 CONDUIT    390.86     0  02:36      0.78    0.30    0.64
  WS02001212WS02001213 CONDUIT    392.62     0  02:35      1.32    0.61    0.45
  WS02001213WS02003059 CONDUIT    395.64     0  03:40      0.85    0.65    0.75
  WS02003059WS02003060 CONDUIT    399.95     0  02:35      0.95    0.26    0.63
  WS02003060WS02003069 CONDUIT    816.05     0  03:16      1.80    0.32    0.42
  WS02003066WSF200     CONDUIT    411.86     0  03:15      2.69    0.07    0.19
  WS02003067WS02003066 CONDUIT    411.86     0  03:15      1.04    0.13    0.38
  WS02003069WS02003072 CONDUIT    816.35     0  03:17      1.55    0.39    0.47
  WS02003072WS02003073 CONDUIT    816.34     0  03:17      1.64    1.76    0.45
  WS02004138WS02004139 CONDUIT    395.20     0  00:00      3.65    0.08    0.43
  WS02004139WS02001211 CONDUIT    381.79     0  02:35      0.91    0.48    0.59
  WS02004401WS02004402 CONDUIT    412.20     0  02:02      0.99    0.49    0.77
  WS02004402WS02004403 CONDUIT    412.26     0  02:03      0.99    0.59    0.79
  WS02004403WS02004404 CONDUIT    412.17     0  02:03      0.93    0.30    0.84
  WS02004404WS02004405 CONDUIT    412.31     0  02:03      1.10    4.04    0.88
  WS02004405WS02004406 CONDUIT    412.38     0  02:03      1.03    0.81    0.88
  WS02004406WS02004407 CONDUIT    412.12     0  02:03      0.89    0.18    0.57
  WS02004407WS02004409 CONDUIT    412.03     0  02:04      1.42    0.15    0.42
  WS02004409WS02004410 CONDUIT    411.94     0  03:13      0.92    0.53    0.58
  WS02004410WS02004411 CONDUIT    411.91     0  02:23      0.86    0.56    0.60
  WS02004411WS02004412 CONDUIT    411.93     0  03:14      0.81    0.59    0.61
  WS02004412WS02004413 CONDUIT    411.90     0  03:14      0.70    0.28    0.70
  WS02004413WS02003067 CONDUIT    411.86     0  03:15      0.96    0.18    0.53
  WS02006109WS02006110 CONDUIT    411.71     0  03:24      0.84    0.79    0.94
  WS02006110WS02006113 CONDUIT    412.00     0  01:58      1.03    0.37    0.75
  WS02006111WS02006112 CONDUIT    413.96     0  02:01      1.83    0.20    0.65
  WS02006112WS02006115 CONDUIT    412.56     0  02:02      0.71    0.24    0.78
  WS02006113WS02006111 CONDUIT    423.58     0  01:58      2.25    0.51    0.40
  WS02006115WS02006116 CONDUIT    412.38     0  02:02      0.98    0.53    0.66
  WS02006116WS02004401 CONDUIT    412.34     0  02:02      1.00    0.57    0.74
  WS02006228WS02006109 CONDUIT    410.48     0  02:10      1.06    1.79    1.00
  WS02006229WS02006228 CONDUIT    410.51     0  02:10      1.13    1.36    1.00
  WS02006230WS02006229 CONDUIT    410.48     0  02:02      1.22    9.13    1.00
  WS02006231WS02006230 CONDUIT    400.33     0  02:10      1.37    6.07    0.77
  WS02006232WS02006231 CONDUIT    400.34     0  02:09      1.08    0.84    0.92
  WS02006234WS02006232 CONDUIT    400.33     0  02:09      1.40    0.81    1.00
  WS02006235WS02006234 CONDUIT    401.52     0  02:09      1.29    4.24    0.99
  WS02006238WS02006235 CONDUIT    402.04     0  02:12      1.52    0.90    1.00
  WS02006239WS02006238 CONDUIT    401.14     0  02:07      1.22    1.28    1.00
  WS02006240WS02006239 CONDUIT    401.43     0  02:09      1.31    1.26    1.00
  WS02006242WS02006240 CONDUIT    400.96     0  02:53      1.18    1.59    1.00
  WS02006243WS02006242 CONDUIT    401.69     0  03:05      1.42    0.86    1.00
  WS02006245WS02006243 CONDUIT    401.11     0  02:07      1.45    1.19    1.00
  WS02006247WS02006245 CONDUIT    403.16     0  02:06      1.43    3.20    1.00
  WS02006248WS02006247 CONDUIT    400.96     0  02:12      1.47    0.87    1.00
  WS02006249WS02006248 CONDUIT    405.17     0  06:53      1.40    2.22    1.00
  WS02006251WS02006249 CONDUIT    473.76     0  02:26      1.99    1.37    1.00
  WS02006252WS02006251 CONDUIT    404.59     0  05:06     28.02    1.49    1.00
  WS02006256WS02006235 CONDUIT    288.91     0  00:00      4.23    3.06    1.00
  WSF200WS02003060     CONDUIT    411.88     0  03:15      1.43    0.09    0.30
  YS02001580YS02001583 CONDUIT     76.75     0  02:04      0.56    0.30    1.00
  YS02001583YS02001586 CONDUIT    137.01     0  02:03      0.56    0.21    1.00
  YS02001586YS02001590 CONDUIT    318.00     0  02:10      1.26    0.56    1.00
  YS02001590YS02001593 CONDUIT    318.18     0  02:26      1.13    2.00    1.00
  YS02001593YS02001596 CONDUIT    318.13     0  02:10      1.62    0.50    1.00
  YS02001596YS02001600 CONDUIT    318.27     0  02:26      1.13    0.62    1.00
  YS02001600YS02001601 CONDUIT    318.45     0  02:26      1.13    0.55    1.00
  YS02001601YS02001602 CONDUIT    498.12     0  02:03      1.76    1.80    1.00
  YS02001602YS02001605 CONDUIT    497.45     0  02:03      1.76   10.53    1.00
  YS02001605YS02001607 CONDUIT    496.39     0  02:03      1.76    2.72    1.00
  YS02001607YS02001610 CONDUIT    495.23     0  02:02      0.63    0.47    1.00
  YS02001610YS02001613 CONDUIT    495.24     0  02:03      0.63    0.57    1.00
  YS02001613YS02001616 CONDUIT    496.74     0  02:02      0.64    0.43    1.00
  YS02001616YS02001619 CONDUIT    493.17     0  02:03      0.66    0.86    1.00
  YS02001619YS02001622 CONDUIT    933.80     0  02:07      1.19    1.38    1.00
  YS02001622YS02001625 CONDUIT    934.99     0  02:07      1.19    0.50    1.00
  YS02001625YS02001629 CONDUIT    935.62     0  02:07      1.19    0.44    1.00
  YS02001629YS02163301 CONDUIT    937.47     0  02:07      1.19    1.15    1.00
  YS02001633YS02163601 CONDUIT   1368.53     0  02:07      1.74    1.44    1.00
  YS02001641YS02001644 CONDUIT   1366.57     0  02:07      1.74    4.42    1.00
  YS02001644YS02001647 CONDUIT   1738.10     0  02:08      2.22    1.02    1.00
  YS02001647YS02001649 CONDUIT   1741.17     0  02:08      2.32    0.92    1.00
  YS02001649YS02001757 CONDUIT   1894.84     0  02:08      2.49    1.15    1.00
  YS02001652YS02001649 CONDUIT    708.40     0  02:13      0.90    0.35    1.00
  YS02001655YS02001652 CONDUIT    705.69     0  02:13      1.26    0.34    1.00
  YS02001658YS02001655 CONDUIT    704.29     0  02:13      1.85    0.30    1.00
  YS02001661YS02001658 CONDUIT    701.88     0  02:13      2.25    0.28    1.00
  YS02001664YS02001661 CONDUIT    837.88     0  02:12      2.22    0.26    0.70
  YS02001745YS02001748 CONDUIT    474.39     0  02:10      2.06    0.18    0.87
  YS02001748YS02001751 CONDUIT    414.35     0  02:12      1.62    0.21    1.00
  YS02001751YS02001754 CONDUIT    414.09     0  02:12      1.35    0.20    1.00
  YS02001754YS02001757 CONDUIT    414.25     0  02:12      0.53    0.17    1.00
  YS02001757CaochengTiaoxuchi CONDUIT   3142.51     0  02:11      4.00    1.36    1.00
  YS02001759YS02001757 CONDUIT   1264.84     0  02:13      1.61    0.90    1.00
  YS02001762YS02001759 CONDUIT    694.72     0  02:11      0.88    0.80    1.00
  YS02001765YS02001762 CONDUIT    694.69     0  02:11      0.88    0.65    1.00
  YS02001767YS02001765 CONDUIT    696.56     0  02:11      0.89    0.88    1.00
  YS02001770YS02001767 CONDUIT    696.93     0  02:11      0.89    2.76    1.00
  YS02001774YS02001770 CONDUIT    264.26     0  02:08      0.34    0.17    1.00
  YS02001779YS02001774 CONDUIT    265.30     0  02:08      0.34    0.13    1.00
  YS02001783YS02001784 CONDUIT    977.26     0  02:12      1.94    1.35    1.00
  YS02001784YS02001785 CONDUIT    978.09     0  02:11      1.95    2.28    1.00
  YS02001786YS02001788 CONDUIT    978.12     0  02:13      1.95    1.88    1.00
  YS02001788YS02001790 CONDUIT    978.62     0  02:12      2.02    0.72    1.00
  YS02001790YS02001791 CONDUIT    978.81     0  02:13      2.36    1.06    1.00
  YS02001791YS02001793 CONDUIT    978.70     0  02:11      4.51    0.42    1.00
  YS02001793JiankangQianchi CONDUIT    980.00     0  02:13      1.54    0.08    1.00
  YS02001882YS02001884 CONDUIT     30.25     0  02:05      0.13    0.03    1.00
  YS02001884YS02001887 CONDUIT     64.57     0  02:05      0.10    0.09    1.00
  YS02001887YS02001890 CONDUIT    633.55     0  02:13      0.81    1.08    1.00
  YS02001890YS02001895 CONDUIT    516.70     0  02:15      0.66    0.24    1.00
  YS02001895YS02001898 CONDUIT    516.75     0  02:15      0.66    0.90    1.00
  YS02001898YS02001901 CONDUIT    516.37     0  02:15      0.66    0.33    1.00
  YS02001901YS02001904 CONDUIT    516.67     0  02:15      0.66    0.80    1.00
  YS02001904YS02001907 CONDUIT    516.38     0  02:15      0.66    0.18    1.00
  YS02001907YS02006553 CONDUIT    675.40     0  02:26      0.75    0.79    1.00
  YS02001910YS02001907 CONDUIT   1085.80     0  02:13      1.38    0.61    1.00
  YS02001915YS02001910 CONDUIT   1085.95     0  02:13      1.38    0.54    1.00
  YS02001918YS02001915 CONDUIT    450.63     0  02:09      0.57    0.25    1.00
  YS02001920YS02001918 CONDUIT    448.47     0  02:09      0.63    0.43    1.00
  YS02001923YS02001920 CONDUIT    444.15     0  02:09      0.71    0.20    1.00
  YS02001926YS02001923 CONDUIT    439.99     0  02:08      0.94    0.63    1.00
  YS02001929YS02001926 CONDUIT    417.99     0  02:09      1.09    0.20    1.00
  YS02006553YS02006556 CONDUIT    674.86     0  02:27      0.86    0.58    1.00
  YS02006556YS02006558 CONDUIT    677.94     0  02:26      0.86    0.54    1.00
  YS02006558YS02006561 CONDUIT    977.10     0  02:12      3.46    2.16    1.00
  YS02006561YS02001783 CONDUIT    977.73     0  02:11      1.98    0.51    1.00
  YS02163301YS02001633 CONDUIT    937.60     0  02:07      1.19    0.88    1.00
  YS02163601YS02164001 CONDUIT   1367.61     0  02:07      1.74    1.21    1.00
  YS02164001YS02001641 CONDUIT   1364.93     0  02:07      1.74    1.86    1.00
  CC-R1                PUMP       683.00     0  00:00              1.00
  CC-R2                PUMP       683.00     0  00:00              1.00
  CC-S1                PUMP       200.00     0  00:00              1.00
  CC-S2                PUMP       200.00     0  00:00              1.00
  JK-R1                PUMP      1000.00     0  00:00              1.00
  JK-R2                PUMP      1000.00     0  00:00              1.00
  JK-S                 PUMP       300.00     0  00:00              1.00
  XR-1                 PUMP        95.00     0  00:00              1.00
  XR-2                 PUMP        95.00     0  00:00              1.00
  XR-3                 PUMP        95.00     0  00:00              1.00
  XR-4                 PUMP        95.00     0  00:00              1.00
  
  
  ***************************
  Flow Classification Summary
  ***************************
  
  -------------------------------------------------------------------------------------
                      Adjusted    ---------- Fraction of Time in Flow Class ---------- 
                       /Actual         Up    Down  Sub   Sup   Up    Down  Norm  Inlet 
  Conduit               Length    Dry  Dry   Dry   Crit  Crit  Crit  Crit  Ltd   Ctrl  
  -------------------------------------------------------------------------------------
  1                       1.00   0.00  0.00  0.00  0.00  1.00  0.00  0.00  0.44  0.00
  WS02001211WS02001212    1.00   0.00  0.00  0.00  1.00  0.00  0.00  0.00  0.00  0.00
  WS02001212WS02001213    1.00   0.00  0.00  0.00  0.77  0.00  0.23  0.00  0.00  0.00
  WS02001213WS02003059    1.00   0.00  0.00  0.00  0.99  0.00  0.00  0.00  0.00  0.00
  WS02003059WS02003060    1.00   0.00  0.00  0.00  1.00  0.00  0.00  0.00  0.00  0.00
  WS02003060WS02003069    1.00   0.00  0.00  0.00  0.99  0.01  0.00  0.00  0.00  0.00
  WS02003066WSF200        1.00   0.02  0.10  0.00  0.00  0.88  0.00  0.00  0.85  0.00
  WS02003067WS02003066    1.00   0.10  0.02  0.00  0.89  0.00  0.00  0.00  0.00  0.00
  WS02003069WS02003072    1.00   0.00  0.00  0.00  0.99  0.01  0.00  0.00  0.00  0.00
  WS02003072WS02003073    1.00   0.00  0.00  0.00  0.00  0.00  0.00  1.00  0.00  0.00
  WS02004138WS02004139    1.00   0.00  0.00  0.00  0.99  0.01  0.00  0.00  1.00  0.00
  WS02004139WS02001211    1.00   0.00  0.00  0.00  1.00  0.00  0.00  0.00  0.00  0.00
  WS02004401WS02004402    1.00   0.02  0.00  0.00  0.98  0.00  0.00  0.00  0.00  0.00
  WS02004402WS02004403    1.00   0.02  0.00  0.00  0.98  0.00  0.00  0.00  0.00  0.00
  WS02004403WS02004404    1.00   0.00  0.03  0.00  0.97  0.00  0.00  0.00  0.00  0.00
  WS02004404WS02004405    1.00   0.00  0.00  0.00  1.00  0.00  0.00  0.00  0.01  0.00
  WS02004405WS02004406    1.00   0.00  0.00  0.00  1.00  0.00  0.00  0.00  0.00  0.00
  WS02004406WS02004407    1.00   0.00  0.05  0.00  0.95  0.00  0.00  0.00  0.00  0.00
  WS02004407WS02004409    1.00   0.05  0.00  0.00  0.94  0.01  0.00  0.00  0.94  0.00
  WS02004409WS02004410    1.00   0.05  0.00  0.00  0.95  0.00  0.00  0.00  0.02  0.00
  WS02004410WS02004411    1.00   0.05  0.00  0.00  0.95  0.00  0.00  0.00  0.00  0.00
  WS02004411WS02004412    1.00   0.05  0.00  0.00  0.95  0.00  0.00  0.00  0.00  0.00
  WS02004412WS02004413    1.00   0.05  0.00  0.00  0.94  0.00  0.00  0.00  0.01  0.00
  WS02004413WS02003067    1.00   0.06  0.04  0.00  0.00  0.00  0.90  0.00  0.00  0.00
  WS02006109WS02006110    1.00   0.00  0.01  0.00  0.98  0.00  0.01  0.00  0.00  0.00
  WS02006110WS02006113    1.00   0.01  0.01  0.00  0.98  0.00  0.00  0.00  0.00  0.00
  WS02006111WS02006112    1.00   0.02  0.00  0.00  0.98  0.00  0.00  0.00  0.98  0.00
  WS02006112WS02006115    1.00   0.02  0.00  0.00  0.97  0.00  0.00  0.00  0.00  0.00
  WS02006113WS02006111    1.00   0.02  0.00  0.00  0.00  0.98  0.00  0.00  0.23  0.00
  WS02006115WS02006116    1.00   0.02  0.00  0.00  0.97  0.00  0.00  0.01  0.00  0.00
  WS02006116WS02004401    1.00   0.02  0.00  0.00  0.98  0.00  0.00  0.00  0.00  0.00
  WS02006228WS02006109    1.00   0.00  0.00  0.00  1.00  0.00  0.00  0.00  0.01  0.00
  WS02006229WS02006228    1.00   0.00  0.00  0.00  0.99  0.00  0.00  0.01  0.01  0.00
  WS02006230WS02006229    1.00   0.00  0.00  0.00  0.99  0.00  0.00  0.01  0.00  0.00
  WS02006231WS02006230    1.00   0.00  0.00  0.00  0.22  0.00  0.78  0.00  0.00  0.00
  WS02006232WS02006231    1.00   0.00  0.00  0.00  0.98  0.00  0.01  0.00  0.00  0.00
  WS02006234WS02006232    1.00   0.00  0.00  0.00  1.00  0.00  0.00  0.00  0.09  0.00
  WS02006235WS02006234    1.00   0.00  0.00  0.00  0.84  0.00  0.16  0.00  0.00  0.00
  WS02006238WS02006235    1.00   0.00  0.00  0.00  1.00  0.00  0.00  0.00  0.00  0.00
  WS02006239WS02006238    1.00   0.00  0.00  0.00  1.00  0.00  0.00  0.00  0.27  0.00
  WS02006240WS02006239    1.00   0.00  0.00  0.00  0.66  0.00  0.00  0.34  0.03  0.00
  WS02006242WS02006240    1.00   0.00  0.00  0.00  0.98  0.00  0.02  0.00  0.00  0.00
  WS02006243WS02006242    1.00   0.00  0.00  0.00  0.98  0.00  0.00  0.02  0.48  0.00
  WS02006245WS02006243    1.00   0.00  0.00  0.00  0.76  0.00  0.00  0.24  0.01  0.00
  WS02006247WS02006245    1.00   0.00  0.00  0.00  0.97  0.00  0.00  0.03  0.00  0.00
  WS02006248WS02006247    1.00   0.00  0.00  0.00  0.98  0.00  0.00  0.02  0.32  0.00
  WS02006249WS02006248    1.00   0.00  0.00  0.00  0.51  0.00  0.49  0.00  0.00  0.00
  WS02006251WS02006249    1.00   0.00  0.00  0.00  0.99  0.01  0.00  0.00  0.51  0.00
  WS02006252WS02006251    1.00   0.00  0.62  0.00  0.00  0.00  0.38  0.00  0.04  0.00
  WS02006256WS02006235    1.00   0.00  0.00  0.00  1.00  0.00  0.00  0.00  0.00  0.00
  WSF200WS02003060        1.00   0.00  0.02  0.00  0.98  0.00  0.00  0.00  0.70  0.00
  YS02001580YS02001583    1.00   0.25  0.55  0.00  0.19  0.00  0.00  0.00  0.64  0.00
  YS02001583YS02001586    1.00   0.48  0.28  0.00  0.24  0.00  0.00  0.00  0.65  0.00
  YS02001586YS02001590    1.00   0.13  0.00  0.00  0.41  0.04  0.00  0.43  0.33  0.00
  YS02001590YS02001593    1.00   0.13  0.01  0.00  0.13  0.00  0.73  0.00  0.00  0.00
  YS02001593YS02001596    1.00   0.13  0.00  0.00  0.57  0.01  0.00  0.28  0.44  0.00
  YS02001596YS02001600    1.00   0.13  0.00  0.00  0.80  0.01  0.00  0.06  0.03  0.00
  YS02001600YS02001601    1.00   0.13  0.01  0.00  0.86  0.00  0.00  0.00  0.04  0.00
  YS02001601YS02001602    1.00   0.13  0.01  0.00  0.87  0.00  0.00  0.00  0.00  0.00
  YS02001602YS02001605    1.00   0.13  0.00  0.00  0.87  0.00  0.00  0.00  0.00  0.00
  YS02001605YS02001607    1.00   0.14  0.00  0.00  0.86  0.00  0.00  0.00  0.00  0.00
  YS02001607YS02001610    1.00   0.13  0.01  0.00  0.86  0.00  0.00  0.00  0.01  0.00
  YS02001610YS02001613    1.00   0.13  0.00  0.00  0.87  0.00  0.00  0.00  0.00  0.00
  YS02001613YS02001616    1.00   0.13  0.00  0.00  0.87  0.00  0.00  0.00  0.00  0.00
  YS02001616YS02001619    1.00   0.13  0.00  0.00  0.87  0.00  0.00  0.00  0.00  0.00
  YS02001619YS02001622    1.00   0.13  0.00  0.00  0.87  0.00  0.00  0.00  0.00  0.00
  YS02001622YS02001625    1.00   0.13  0.00  0.00  0.87  0.00  0.00  0.00  0.04  0.00
  YS02001625YS02001629    1.00   0.13  0.05  0.00  0.77  0.00  0.05  0.00  0.00  0.00
  YS02001629YS02163301    1.00   0.15  0.01  0.00  0.84  0.00  0.00  0.00  0.00  0.00
  YS02001633YS02163601    1.00   0.00  0.01  0.00  0.99  0.00  0.00  0.00  0.15  0.00
  YS02001641YS02001644    1.00   0.00  0.01  0.00  0.99  0.00  0.00  0.00  0.00  0.00
  YS02001644YS02001647    1.00   0.00  0.17  0.00  0.83  0.00  0.00  0.00  0.00  0.00
  YS02001647YS02001649    1.00   0.00  0.17  0.00  0.79  0.04  0.00  0.00  0.02  0.00
  YS02001649YS02001757    1.00   0.00  0.00  0.00  0.95  0.05  0.00  0.00  0.18  0.00
  YS02001652YS02001649    1.00   0.00  0.00  0.00  0.97  0.03  0.00  0.00  0.17  0.00
  YS02001655YS02001652    1.00   0.00  0.00  0.00  0.77  0.01  0.00  0.22  0.02  0.00
  YS02001658YS02001655    1.00   0.00  0.14  0.00  0.74  0.12  0.00  0.00  0.06  0.00
  YS02001661YS02001658    1.00   0.14  0.00  0.00  0.73  0.13  0.00  0.00  0.17  0.00
  YS02001664YS02001661    1.00   0.13  0.00  0.00  0.81  0.06  0.00  0.00  0.85  0.00
  YS02001745YS02001748    1.00   0.00  0.00  0.00  0.73  0.00  0.00  0.27  0.16  0.00
  YS02001748YS02001751    1.00   0.00  0.00  0.00  0.87  0.13  0.00  0.00  0.13  0.00
  YS02001751YS02001754    1.00   0.00  0.00  0.00  0.75  0.01  0.00  0.24  0.01  0.00
  YS02001754YS02001757    1.00   0.00  0.00  0.00  1.00  0.00  0.00  0.00  0.24  0.00
  YS02001757CaochengTiaoxuchi    1.00   0.00  0.00  0.00  1.00  0.00  0.00  0.00  0.22  0.00
  YS02001759YS02001757    1.00   0.00  0.00  0.00  0.99  0.01  0.00  0.00  0.06  0.00
  YS02001762YS02001759    1.00   0.00  0.00  0.00  1.00  0.00  0.00  0.00  0.03  0.00
  YS02001765YS02001762    1.00   0.00  0.00  0.00  1.00  0.00  0.00  0.00  0.14  0.00
  YS02001767YS02001765    1.00   0.00  0.00  0.00  1.00  0.00  0.00  0.00  0.00  0.00
  YS02001770YS02001767    1.00   0.00  0.00  0.00  1.00  0.00  0.00  0.00  0.00  0.00
  YS02001774YS02001770    1.00   0.00  0.13  0.00  0.87  0.00  0.00  0.00  0.03  0.00
  YS02001779YS02001774    1.00   0.00  0.00  0.00  1.00  0.00  0.00  0.00  0.17  0.00
  YS02001783YS02001784    1.00   0.00  0.18  0.00  0.82  0.00  0.00  0.00  0.00  0.00
  YS02001784YS02001785    1.00   0.00  0.00  0.00  1.00  0.00  0.00  0.00  0.17  0.00
  YS02001786YS02001788    1.00   0.00  0.00  0.00  0.95  0.05  0.00  0.00  0.00  0.00
  YS02001788YS02001790    1.00   0.00  0.00  0.00  0.94  0.06  0.00  0.00  0.18  0.00
  YS02001790YS02001791    1.00   0.00  0.00  0.00  0.77  0.23  0.00  0.00  0.04  0.00
  YS02001791YS02001793    1.00   0.00  0.00  0.00  0.76  0.23  0.00  0.00  0.00  0.00
  YS02001793JiankangQianchi    1.00   0.00  0.00  0.00  0.93  0.06  0.00  0.00  0.21  0.00
  YS02001882YS02001884    1.00   0.15  0.01  0.00  0.84  0.00  0.00  0.00  0.00  0.00
  YS02001884YS02001887    1.00   0.06  0.05  0.00  0.89  0.00  0.00  0.00  0.00  0.00
  YS02001887YS02001890    1.00   0.00  0.00  0.00  0.97  0.00  0.03  0.00  0.00  0.00
  YS02001890YS02001895    1.00   0.00  0.16  0.00  0.84  0.00  0.00  0.00  0.00  0.00
  YS02001895YS02001898    1.00   0.16  0.00  0.00  0.82  0.00  0.02  0.00  0.00  0.00
  YS02001898YS02001901    1.00   0.16  0.00  0.00  0.84  0.00  0.00  0.00  0.01  0.00
  YS02001901YS02001904    1.00   0.16  0.00  0.00  0.84  0.00  0.00  0.00  0.00  0.00
  YS02001904YS02001907    1.00   0.00  0.16  0.00  0.84  0.00  0.00  0.00  0.00  0.00
  YS02001907YS02006553    1.00   0.00  0.02  0.00  0.98  0.00  0.00  0.00  0.00  0.00
  YS02001910YS02001907    1.00   0.00  0.00  0.00  0.97  0.00  0.00  0.03  0.12  0.00
  YS02001915YS02001910    1.00   0.00  0.00  0.00  0.97  0.03  0.00  0.00  0.15  0.00
  YS02001918YS02001915    1.00   0.00  0.01  0.00  0.98  0.02  0.00  0.00  0.76  0.00
  YS02001920YS02001918    1.00   0.00  0.01  0.00  0.99  0.00  0.00  0.00  0.00  0.00
  YS02001923YS02001920    1.00   0.00  0.00  0.00  1.00  0.00  0.00  0.00  0.93  0.00
  YS02001926YS02001923    1.00   0.00  0.07  0.00  0.06  0.00  0.87  0.00  0.00  0.00
  YS02001929YS02001926    1.00   0.00  0.13  0.00  0.87  0.00  0.00  0.00  0.83  0.00
  YS02006553YS02006556    1.00   0.01  0.00  0.00  0.99  0.00  0.00  0.00  0.03  0.00
  YS02006556YS02006558    1.00   0.00  0.00  0.00  1.00  0.00  0.00  0.00  0.00  0.00
  YS02006558YS02006561    1.00   0.18  0.00  0.00  0.07  0.75  0.00  0.00  0.18  0.00
  YS02006561YS02001783    1.00   0.18  0.00  0.00  0.76  0.07  0.00  0.00  0.72  0.00
  YS02163301YS02001633    1.00   0.00  0.15  0.00  0.85  0.00  0.00  0.00  0.00  0.00
  YS02163601YS02164001    1.00   0.00  0.08  0.00  0.92  0.00  0.00  0.00  0.00  0.00
  YS02164001YS02001641    1.00   0.01  0.07  0.00  0.92  0.00  0.00  0.00  0.05  0.00
  
  
  *************************
  Conduit Surcharge Summary
  *************************
  
  ----------------------------------------------------------------------------
                                                           Hours        Hours 
                         --------- Hours Full --------   Above Full   Capacity
  Conduit                Both Ends  Upstream  Dnstream   Normal Flow   Limited
  ----------------------------------------------------------------------------
  WS02003072WS02003073        0.01      0.01      0.01      4.72         0.01
  WS02004404WS02004405        0.01      0.01      0.01      3.78         0.01
  WS02006109WS02006110        0.01      0.01      1.60      0.01         0.01
  WS02006110WS02006113        0.01      0.01      1.55      0.01         0.01
  WS02006111WS02006112        0.01      0.01      1.77      0.01         0.01
  WS02006228WS02006109        1.49      1.61      1.49      2.33         1.49
  WS02006229WS02006228        1.47      1.51      1.47      1.90         1.47
  WS02006230WS02006229        1.71      1.76      1.71      4.59         1.71
  WS02006231WS02006230        0.01      0.01      0.01      3.99         0.01
  WS02006232WS02006231        0.01      0.01      1.61      0.01         0.01
  WS02006234WS02006232        1.42      1.42      1.61      0.01         0.01
  WS02006235WS02006234        0.01      0.01      1.51      3.49         0.01
  WS02006238WS02006235        1.53      1.53      1.63      0.01         0.01
  WS02006239WS02006238        1.56      1.61      1.56      2.05         1.55
  WS02006240WS02006239        1.52      1.54      1.52      2.10         1.52
  WS02006242WS02006240        1.52      1.52      1.72      2.41         0.01
  WS02006243WS02006242        1.57      1.57      1.67      0.01         0.01
  WS02006245WS02006243        1.55      1.57      1.55      2.33         1.55
  WS02006247WS02006245        1.55      1.60      1.55      2.89         1.55
  WS02006248WS02006247        1.56      1.56      1.59      0.01         0.01
  WS02006249WS02006248        1.54      1.54      1.58      2.79         0.01
  WS02006251WS02006249        1.57      1.59      1.58      2.56         1.57
  WS02006252WS02006251        2.68      2.68      2.68      2.68         0.01
  WS02006256WS02006235        3.75      3.75      5.86      0.02         0.01
  YS02001580YS02001583        0.52      0.52      0.56      0.01         0.01
  YS02001583YS02001586        0.53      0.53      0.73      0.01         0.01
  YS02001586YS02001590        0.74      0.74      0.83      0.01         0.01
  YS02001590YS02001593        0.84      0.84      0.86      0.80         0.01
  YS02001593YS02001596        0.85      0.85      1.04      0.01         0.01
  YS02001596YS02001600        1.12      1.12      1.40      0.01         0.01
  YS02001600YS02001601        2.13      2.13      5.90      0.01         0.01
  YS02001601YS02001602        5.09      5.09      6.21      1.02         0.01
  YS02001602YS02001605        5.03      5.03      5.09      2.16         0.30
  YS02001605YS02001607        4.99      5.03      5.94      1.33         1.19
  YS02001607YS02001610        1.07      1.07      1.23      0.01         0.01
  YS02001610YS02001613        1.09      1.09      1.23      0.01         0.01
  YS02001613YS02001616        0.99      0.99      1.09      0.01         0.01
  YS02001616YS02001619        0.98      0.98      0.99      0.01         0.01
  YS02001619YS02001622        0.98      0.98      1.00      0.60         0.54
  YS02001622YS02001625        1.00      1.00      4.03      0.01         0.01
  YS02001625YS02001629        0.96      0.96      4.03      0.01         0.01
  YS02001629YS02163301        4.50      4.50      4.74      0.08         0.08
  YS02001633YS02163601        5.30      5.30      6.01      0.12         0.12
  YS02001641YS02001644        5.95      5.97      5.95      1.36         1.12
  YS02001644YS02001647        3.95      3.95      5.95      0.02         0.01
  YS02001647YS02001649        3.95      3.95      5.88      0.01         0.01
  YS02001649YS02001757        5.88      5.88      5.88      0.10         0.04
  YS02001652YS02001649        4.18      4.18      5.88      0.01         0.01
  YS02001655YS02001652        0.88      0.88      3.25      0.01         0.01
  YS02001658YS02001655        0.18      0.18      0.88      0.01         0.01
  YS02001661YS02001658        0.01      0.01      0.18      0.01         0.01
  YS02001664YS02001661        0.01      0.01      0.02      0.01         0.01
  YS02001745YS02001748        0.01      0.01      0.11      0.01         0.01
  YS02001748YS02001751        0.15      0.15      0.78      0.01         0.01
  YS02001751YS02001754        0.78      0.78      2.87      0.01         0.01
  YS02001754YS02001757        4.01      4.01      5.88      0.01         0.01
  YS02001757CaochengTiaoxuchi        5.88      5.88      5.90      0.26         0.23
  YS02001759YS02001757        5.87      5.87      5.88      0.01         0.01
  YS02001762YS02001759        5.86      5.86      5.87      0.01         0.01
  YS02001765YS02001762        5.86      5.86      5.86      0.01         0.01
  YS02001767YS02001765        4.79      4.79      5.86      0.01         0.02
  YS02001770YS02001767        4.78      4.78      4.79      0.43         0.49
  YS02001774YS02001770        4.58      4.58      5.86      0.01         0.01
  YS02001779YS02001774        2.33      2.33      5.86      0.01         0.01
  YS02001783YS02001784        0.70      0.70      0.71      0.54         0.55
  YS02001784YS02001785        0.70      0.71      0.70      0.82         0.70
  YS02001786YS02001788        0.70      0.70      0.70      0.72         0.70
  YS02001788YS02001790        0.70      0.70      6.05      0.01         0.01
  YS02001790YS02001791        6.05      6.05      6.06      0.33         0.33
  YS02001791YS02001793        6.06      6.06      6.10      0.01         0.01
  YS02001793JiankangQianchi        6.09      6.09      6.34      0.01         0.01
  YS02001882YS02001884        0.44      0.44      0.45      0.01         0.01
  YS02001884YS02001887        0.47      0.47      0.48      0.01         0.01
  YS02001887YS02001890        0.50      0.50      0.51      0.04         0.01
  YS02001890YS02001895        0.43      0.43      0.52      0.01         0.01
  YS02001895YS02001898        0.42      0.42      0.43      0.01         0.01
  YS02001898YS02001901        0.43      0.43      0.47      0.01         0.01
  YS02001901YS02001904        0.46      0.46      0.47      0.01         0.01
  YS02001904YS02001907        0.46      0.46      0.72      0.01         0.01
  YS02001907YS02006553        0.85      0.85      0.92      0.01         0.01
  YS02001910YS02001907        0.52      0.52      0.70      0.01         0.01
  YS02001915YS02001910        0.43      0.43      0.52      0.01         0.01
  YS02001918YS02001915        0.34      0.34      0.43      0.01         0.01
  YS02001920YS02001918        0.34      0.34      0.36      0.01         0.01
  YS02001923YS02001920        0.29      0.29      0.36      0.01         0.01
  YS02001926YS02001923        0.01      0.01      0.03      0.01         0.01
  YS02001929YS02001926        0.01      0.01      0.03      0.01         0.01
  YS02006553YS02006556        0.61      0.61      0.72      0.01         0.01
  YS02006556YS02006558        0.65      0.65      0.73      0.01         0.01
  YS02006558YS02006561        0.48      0.59      0.48      0.80         0.48
  YS02006561YS02001783        0.39      0.39      0.70      0.01         0.01
  YS02163301YS02001633        4.74      4.74      5.89      0.01         0.01
  YS02163601YS02164001        5.80      5.80      6.01      0.09         0.01
  YS02164001YS02001641        5.79      5.80      5.97      0.55         0.46
  
  
  ***************
  Pumping Summary
  ***************
  
  ---------------------------------------------------------------------------------------------------------
                                                  Min       Avg       Max     Total     Power    % Time Off
                        Percent   Number of      Flow      Flow      Flow    Volume     Usage    Pump Curve
  Pump                 Utilized   Start-Ups       LPS       LPS       LPS  10^6 ltr     Kw-hr    Low   High
  ---------------------------------------------------------------------------------------------------------
  CC-R1                    1.06           1      0.00    683.00    683.00     0.208      3.51    0.0  100.0
  CC-R2                    1.06           1      0.00    683.00    683.00     0.208      3.51    0.0  100.0
  CC-S1                   36.61          14      0.00    200.00    200.00     2.109      9.07    0.0   60.7
  CC-S2                   33.48          11      0.00    200.00    200.00     1.929      8.55    0.0   60.1
  JK-R1                    0.97           2      0.00    347.46   1000.00     0.078      0.47    0.0    0.0
  JK-R2                    0.97           2      0.00    347.46   1000.00     0.078      0.47    0.0    0.0
  JK-S                     0.97           2      0.00    104.30    300.00     0.023      0.44    0.0    0.0
  XR-1                   100.00           1      0.00     95.00     95.00     2.736     68.18    0.0    0.0
  XR-2                   100.00           1      0.00     95.00     95.00     2.736     68.18    0.0    0.0
  XR-3                   100.00           1      0.00     95.00     95.00     2.736     68.18    0.0    0.0
  XR-4                   100.00           1      0.00     95.00     95.00     2.736     68.18    0.0    0.0
  

  Analysis begun on:  Wed Nov  5 16:28:39 2025
  Analysis ended on:  Wed Nov  5 16:28:42 2025
  Total elapsed time: 00:00:03