
  EPA STORM WATER MANAGEMENT MODEL - VERSION 5.2 (Build 5.2.4)
  PYSWMM TOOLKIT API - VERSION v1.0 (2023-11-27)
  ------------------------------------------------------------

  WARNING 04: minimum elevation drop used for Conduit WS02004404WS02004405
  WARNING 03: negative offset ignored for Link YS02001904YS02001907
  
  ****************
  Analysis Options
  ****************
  Flow Units ............... LPS
  Process Models:
    Rainfall/Runoff ........ YES
    RDII ................... NO
    Snowmelt ............... NO
    Groundwater ............ NO
    Flow Routing ........... YES
    Ponding Allowed ........ NO
    Water Quality .......... NO
  Infiltration Method ...... HORTON
  Flow Routing Method ...... DYNWAVE
  Surcharge Method ......... EXTRAN
  Starting Date ............ 08/28/2015 08:00:00
  Ending Date .............. 08/28/2015 16:00:00
  Antecedent Dry Days ...... 8.0
  Report Time Step ......... 00:01:00
  Wet Time Step ............ 00:01:00
  Dry Time Step ............ 00:01:00
  Routing Time Step ........ 30.00 sec
  Variable Time Step ....... YES
  Maximum Trials ........... 8
  Number of Threads ........ 4
  Head Tolerance ........... 0.001500 m
  
  
  **************************        Volume         Depth
  Runoff Quantity Continuity     hectare-m            mm
  **************************     ---------       -------
  Initial LID Storage ......         0.049         1.488
  Total Precipitation ......         2.228        67.163
  Evaporation Loss .........         0.000         0.000
  Infiltration Loss ........         0.078         2.359
  Surface Runoff ...........         1.654        49.878
  Final Storage ............         0.545        16.428
  Continuity Error (%) .....        -0.020
  
  
  **************************        Volume        Volume
  Flow Routing Continuity        hectare-m      10^6 ltr
  **************************     ---------     ---------
  Dry Weather Inflow .......         0.602         6.020
  Wet Weather Inflow .......         1.654        16.545
  Groundwater Inflow .......         0.000         0.000
  RDII Inflow ..............         0.000         0.000
  External Inflow ..........         0.105         1.045
  External Outflow .........         1.586        15.860
  Flooding Loss ............         0.769         7.688
  Evaporation Loss .........         0.000         0.000
  Exfiltration Loss ........         0.000         0.000
  Initial Stored Volume ....         0.303         3.031
  Final Stored Volume ......         0.771         7.706
  Continuity Error (%) .....       -17.317
  
  
  *************************
  Highest Continuity Errors
  *************************
  Node YS02001774 (20.80%)
  Node YS02001884 (4.73%)
  Node YS02001583 (-4.52%)
  Node YS02001754 (3.37%)
  Node YS02001751 (2.96%)
  
  
  ***************************
  Time-Step Critical Elements
  ***************************
  Link WS02006238WS02006235 (23.32%)
  Link WS02001212WS02001213 (21.70%)
  Link WS02006235WS02006234 (19.87%)
  Link WS02006252WS02006251 (11.23%)
  Link WS02003066WSF200 (7.43%)
  
  
  ********************************
  Highest Flow Instability Indexes
  ********************************
  Link WS02006113WS02006111 (43)
  Link WS02006111WS02006112 (28)
  Link WS02006256WS02006235 (27)
  Link WS02006238WS02006235 (22)
  Link WS02006110WS02006113 (21)
  
  
  *********************************
  Most Frequent Nonconverging Nodes
  *********************************
  Node CC-1 (8.30%)
  Node CC-2 (8.30%)
  Node JK-1 (8.30%)
  Node JK-2 (8.30%)
  Node WSC (8.30%)
  
  
  *************************
  Routing Time Step Summary
  *************************
  Minimum Time Step           :     0.01 sec
  Average Time Step           :     3.24 sec
  Maximum Time Step           :     6.46 sec
  % of Time in Steady State   :     0.00
  Average Iterations per Step :     3.13
  % of Steps Not Converging   :     8.30
  Time Step Frequencies       :
     30.000 - 13.228 sec      :     0.00 %
     13.228 -  5.833 sec      :    22.57 %
      5.833 -  2.572 sec      :    41.13 %
      2.572 -  1.134 sec      :    22.67 %
      1.134 -  0.500 sec      :    13.63 %
  
  
  ***************************
  Subcatchment Runoff Summary
  ***************************
  
  ------------------------------------------------------------------------------------------------------------------------------
                            Total      Total      Total      Total     Imperv       Perv      Total       Total     Peak  Runoff
                           Precip      Runon       Evap      Infil     Runoff     Runoff     Runoff      Runoff   Runoff   Coeff
  Subcatchment                 mm         mm         mm         mm         mm         mm         mm    10^6 ltr      LPS
  ------------------------------------------------------------------------------------------------------------------------------
  sub60                     67.16       0.00       0.00       1.40      44.69       4.82      49.51        0.65   430.94   0.737
  sub61                     67.16       0.00       0.00       2.15      44.65       7.19      51.84        0.95   630.06   0.772
  sub62                     67.16       0.00       0.00       0.95      47.60       3.28      50.88        1.39   861.68   0.758
  sub63                     67.16       0.00       0.00       3.94      38.24      12.01      50.25        1.14   722.14   0.748
  sub64                     67.16       0.00       0.00       1.89      43.54       5.96      49.51        1.19   710.37   0.737
  sub65                     67.16       0.00       0.00       1.73      47.00       5.44      52.44        1.44   834.78   0.781
  sub66                     67.16       0.00       0.00       4.62      36.98      10.83      47.81        2.23  1107.22   0.712
  sub67                     67.16       0.00       0.00       0.94      48.80       3.39      52.19        0.97   664.87   0.777
  sub68                     67.16       0.00       0.00       1.65      43.10       5.52      48.61        1.34   859.90   0.724
  sub69                     67.16       0.00       0.00       1.52      45.16       6.47      51.63        1.91  1078.54   0.769
  sub70                     67.16       0.00       0.00       5.11      36.18      13.58      49.76        1.44   642.38   0.741
  sub71                     67.16       0.00       0.00       0.88      43.24       2.96      46.20        1.21   715.70   0.688
  sub72                     67.16       0.00       0.00       0.84      46.71       2.76      49.47        0.68   373.91   0.737
  

  ***********************
  LID Performance Summary
  ***********************

  --------------------------------------------------------------------------------------------------------------------
                                         Total      Evap     Infil   Surface    Drain    Initial     Final  Continuity
                                        Inflow      Loss      Loss   Outflow   Outflow   Storage   Storage       Error
  Subcatchment      LID Control             mm        mm        mm        mm        mm        mm        mm           %
  --------------------------------------------------------------------------------------------------------------------
  sub60             GreenRoof            67.16      0.00      0.00      0.00      0.00      7.05     74.23       -0.02
  sub61             GreenRoof            67.16      0.00      0.00      0.00      0.00      7.05     74.23       -0.02
  sub62             GreenRoof            67.16      0.00      0.00      0.00      0.00      7.05     74.23       -0.02
  sub63             GreenRoof            67.16      0.00      0.00      0.00      0.00      7.05     74.23       -0.02
  sub64             GreenRoof            67.16      0.00      0.00      0.00      0.00      7.05     74.23       -0.02
  sub65             GreenRoof            67.16      0.00      0.00      0.00      0.00      7.05     74.23       -0.02
  sub66             GreenRoof            67.16      0.00      0.00      0.00      0.00      7.05     74.23       -0.02
  sub67             GreenRoof            67.16      0.00      0.00      0.00      0.00      7.05     74.23       -0.02
  sub68             GreenRoof            67.16      0.00      0.00      0.00      0.00      7.05     74.23       -0.02
  sub69             GreenRoof            67.16      0.00      0.00      0.00      0.00      7.05     74.23       -0.02
  sub70             GreenRoof            67.16      0.00      0.00      0.00      0.00      7.05     74.23       -0.02
  sub71             GreenRoof            67.16      0.00      0.00      0.00      0.00      7.05     74.23       -0.02
  sub72             GreenRoof            67.16      0.00      0.00      0.00      0.00      7.05     74.23       -0.02
  
  ******************
  Node Depth Summary
  ******************
  
  ---------------------------------------------------------------------------------
                                 Average  Maximum  Maximum  Time of Max    Reported
                                   Depth    Depth      HGL   Occurrence   Max Depth
  Node                 Type       Meters   Meters   Meters  days hr:min      Meters
  ---------------------------------------------------------------------------------
  WS02001211           JUNCTION     0.76     0.78     5.62     0  02:47        0.78
  WS02001212           JUNCTION     0.46     0.49     5.55     0  03:17        0.49
  WS02001213           JUNCTION     0.68     0.73     5.49     0  03:17        0.73
  WS02003059           JUNCTION     0.73     0.78     5.47     0  02:45        0.78
  WS02003060           JUNCTION     0.38     0.47     5.41     0  03:16        0.47
  WS02003066           JUNCTION     0.16     0.27     5.82     0  02:44        0.27
  WS02003067           JUNCTION     0.43     0.65     5.97     0  02:44        0.65
  WS02003069           JUNCTION     0.43     0.54     5.12     0  02:45        0.54
  WS02003072           JUNCTION     0.49     0.60     4.97     0  02:46        0.60
  WS02003073           JUNCTION     0.29     0.37     4.43     0  02:46        0.37
  WS02004138           JUNCTION     0.19     0.20     7.45     0  00:00        0.19
  WS02004139           JUNCTION     0.71     0.73     5.64     0  02:47        0.73
  WS02004401           JUNCTION     0.51     0.75     6.75     0  02:36        0.75
  WS02004402           JUNCTION     0.55     0.78     6.74     0  02:37        0.78
  WS02004403           JUNCTION     0.57     0.80     6.73     0  02:37        0.80
  WS02004404           JUNCTION     0.65     0.88     6.73     0  02:37        0.88
  WS02004405           JUNCTION     0.64     0.88     6.73     0  02:37        0.87
  WS02004406           JUNCTION     0.66     0.88     6.71     0  02:37        0.88
  WS02004407           JUNCTION     0.14     0.26     6.57     0  02:03        0.26
  WS02004409           JUNCTION     0.31     0.57     6.34     0  02:38        0.57
  WS02004410           JUNCTION     0.33     0.59     6.31     0  02:43        0.59
  WS02004411           JUNCTION     0.36     0.61     6.29     0  02:43        0.61
  WS02004412           JUNCTION     0.38     0.62     6.26     0  02:43        0.62
  WS02004413           JUNCTION     0.54     0.79     6.26     0  02:44        0.79
  WS02006109           JUNCTION     0.57     0.84     7.45     0  02:10        0.84
  WS02006110           JUNCTION     0.58     0.82     7.41     0  01:58        0.82
  WS02006111           JUNCTION     0.15     0.25     6.96     0  02:02        0.25
  WS02006112           JUNCTION     0.66     0.93     6.82     0  02:02        0.93
  WS02006113           JUNCTION     0.22     0.39     7.29     0  01:58        0.39
  WS02006115           JUNCTION     0.40     0.65     6.78     0  02:02        0.65
  WS02006116           JUNCTION     0.48     0.73     6.77     0  02:36        0.73
  WS02006228           JUNCTION     0.56     0.85     7.50     0  02:14        0.85
  WS02006229           JUNCTION     0.53     0.83     7.52     0  02:10        0.83
  WS02006230           JUNCTION     0.51     0.86     7.60     0  01:58        0.86
  WS02006231           JUNCTION     0.32     0.60     7.72     0  02:44        0.60
  WS02006232           JUNCTION     0.44     0.75     7.79     0  02:07        0.75
  WS02006234           JUNCTION     0.35     0.71     7.87     0  02:07        0.71
  WS02006235           JUNCTION     0.39     0.76     7.93     0  02:08        0.76
  WS02006238           JUNCTION     0.42     0.81     7.96     0  01:57        0.79
  WS02006239           JUNCTION     0.39     0.81     8.02     0  02:29        0.81
  WS02006240           JUNCTION     0.37     0.79     8.08     0  02:11        0.79
  WS02006242           JUNCTION     0.44     0.90     8.17     0  02:08        0.90
  WS02006243           JUNCTION     0.38     0.84     8.26     0  02:11        0.84
  WS02006245           JUNCTION     0.38     0.86     8.34     0  02:48        0.85
  WS02006247           JUNCTION     0.40     0.89     8.39     0  02:01        0.89
  WS02006248           JUNCTION     0.38     0.86     8.45     0  02:36        0.85
  WS02006249           JUNCTION     0.41     0.90     8.50     0  02:10        0.90
  WS02006251           JUNCTION     0.41     0.91     8.58     0  01:57        0.91
  WS02006252           JUNCTION     0.30     1.50     9.74     0  00:00        0.59
  WS02006256           JUNCTION     0.64     2.35     9.28     0  00:00        2.35
  WSF200               JUNCTION     0.13     0.25     5.48     0  03:15        0.25
  YS02001580           JUNCTION     0.09     1.05     9.59     0  02:04        0.77
  YS02001583           JUNCTION     0.12     1.12     9.61     0  02:04        0.82
  YS02001586           JUNCTION     0.20     1.13     9.30     0  02:04        1.13
  YS02001590           JUNCTION     0.29     1.40     9.26     0  02:04        1.39
  YS02001593           JUNCTION     0.23     1.34     9.20     0  02:04        1.33
  YS02001596           JUNCTION     0.47     1.69     9.10     0  02:04        1.68
  YS02001600           JUNCTION     0.70     1.87     9.00     0  02:04        1.87
  YS02001601           JUNCTION     0.95     2.06     8.90     0  02:03        2.06
  YS02001602           JUNCTION     0.87     1.87     8.77     0  02:06        1.87
  YS02001605           JUNCTION     0.84     1.77     8.68     0  02:10        1.77
  YS02001607           JUNCTION     0.84     1.65     8.49     0  02:11        1.64
  YS02001610           JUNCTION     0.88     1.68     8.48     0  02:07        1.68
  YS02001613           JUNCTION     0.84     1.66     8.50     0  02:10        1.66
  YS02001616           JUNCTION     0.77     1.60     8.51     0  02:10        1.60
  YS02001619           JUNCTION     0.76     1.61     8.54     0  02:10        1.61
  YS02001622           JUNCTION     0.77     1.58     8.48     0  02:10        1.58
  YS02001625           JUNCTION     1.02     1.78     8.38     0  02:07        1.78
  YS02001629           JUNCTION     1.05     1.85     8.40     0  02:09        1.85
  YS02001633           JUNCTION     1.13     2.08     8.53     0  02:10        2.08
  YS02001641           JUNCTION     1.12     2.07     8.51     0  02:10        2.07
  YS02001644           JUNCTION     1.11     1.92     8.35     0  02:10        1.92
  YS02001647           JUNCTION     0.93     1.73     8.34     0  02:12        1.73
  YS02001649           JUNCTION     1.09     1.94     8.33     0  02:12        1.93
  YS02001652           JUNCTION     0.91     1.77     8.37     0  02:12        1.76
  YS02001655           JUNCTION     0.71     1.66     8.51     0  02:10        1.54
  YS02001658           JUNCTION     0.50     1.69     8.83     0  02:10        1.28
  YS02001661           JUNCTION     0.32     1.07     8.47     0  02:11        1.04
  YS02001664           JUNCTION     0.05     0.49     8.42     0  02:11        0.47
  YS02001745           JUNCTION     0.21     0.74     8.25     0  02:11        0.73
  YS02001748           JUNCTION     0.53     1.28     8.36     0  02:10        1.17
  YS02001751           JUNCTION     0.67     1.40     8.28     0  02:10        1.36
  YS02001754           JUNCTION     0.88     1.63     8.23     0  02:12        1.62
  YS02001757           JUNCTION     1.17     1.97     8.23     0  02:12        1.95
  YS02001759           JUNCTION     1.09     1.95     8.32     0  02:12        1.94
  YS02001762           JUNCTION     1.06     1.94     8.34     0  02:12        1.92
  YS02001765           JUNCTION     1.02     1.91     8.36     0  02:12        1.90
  YS02001767           JUNCTION     0.99     1.96     8.45     0  02:10        1.96
  YS02001770           JUNCTION     1.00     1.95     8.44     0  02:10        1.95
  YS02001774           JUNCTION     1.06     2.05     8.47     0  02:10        2.05
  YS02001779           JUNCTION     0.82     1.68     8.37     0  02:08        1.68
  YS02001783           JUNCTION     0.48     1.51     7.65     0  02:08        1.49
  YS02001784           JUNCTION     0.53     1.45     7.52     0  02:08        1.44
  YS02001786           JUNCTION     0.53     1.30     7.33     0  02:08        1.29
  YS02001788           JUNCTION     0.54     1.16     7.13     0  02:08        1.16
  YS02001790           JUNCTION     0.77     1.32     6.96     0  02:08        1.31
  YS02001791           JUNCTION     0.87     1.29     6.76     0  01:58        1.29
  YS02001793           JUNCTION     1.32     1.83     6.66     0  01:58        1.81
  YS02001882           JUNCTION     0.30     1.66     8.38     0  02:08        1.63
  YS02001884           JUNCTION     0.39     1.75     8.37     0  02:10        1.75
  YS02001887           JUNCTION     0.46     1.83     8.37     0  02:10        1.83
  YS02001890           JUNCTION     0.49     1.81     8.32     0  02:08        1.81
  YS02001895           JUNCTION     0.27     1.57     8.32     0  02:10        1.57
  YS02001898           JUNCTION     0.28     1.57     8.31     0  02:23        1.57
  YS02001901           JUNCTION     0.39     1.68     8.29     0  02:23        1.68
  YS02001904           JUNCTION     0.37     1.64     8.27     0  02:08        1.64
  YS02001907           JUNCTION     0.68     1.96     8.25     0  02:08        1.96
  YS02001910           JUNCTION     0.48     1.96     8.47     0  02:08        1.87
  YS02001915           JUNCTION     0.30     1.91     8.62     0  02:08        1.75
  YS02001918           JUNCTION     0.16     1.81     8.88     0  02:08        1.50
  YS02001920           JUNCTION     0.23     2.13     9.13     0  02:08        1.60
  YS02001923           JUNCTION     0.12     2.03     9.29     0  02:08        1.39
  YS02001926           JUNCTION     0.15     1.90     9.35     0  02:08        1.22
  YS02001929           JUNCTION     0.08     1.78     9.47     0  02:08        1.02
  YS02006553           JUNCTION     0.69     1.98     8.26     0  02:11        1.97
  YS02006556           JUNCTION     0.66     1.96     8.27     0  02:11        1.95
  YS02006558           JUNCTION     0.70     2.03     8.30     0  02:10        2.03
  YS02006561           JUNCTION     0.17     1.12     7.78     0  02:08        1.12
  YS02163301           JUNCTION     1.07     1.96     8.48     0  02:10        1.96
  YS02163601           JUNCTION     1.17     2.08     8.48     0  02:10        2.08
  YS02164001           JUNCTION     1.10     2.10     8.56     0  02:10        2.10
  CC-1                 OUTFALL      0.00     0.00     0.00     0  00:00        0.00
  CC-2                 OUTFALL      0.00     0.00     0.00     0  00:00        0.00
  JK-1                 OUTFALL      0.00     0.00     0.00     0  00:00        0.00
  JK-2                 OUTFALL      0.00     0.00     0.00     0  00:00        0.00
  WSC                  OUTFALL      0.29     0.37     1.04     0  02:46        0.37
  CC-storage           STORAGE      1.76     2.30     7.80     0  02:40        2.30
  JK-storage           STORAGE      4.49     5.80     6.60     0  01:57        5.80
  XR-storage           STORAGE      0.26     5.00     3.00     0  00:00        4.91
  
  
  *******************
  Node Inflow Summary
  *******************
  
  -------------------------------------------------------------------------------------------------
                                  Maximum  Maximum                  Lateral       Total        Flow
                                  Lateral    Total  Time of Max      Inflow      Inflow     Balance
                                   Inflow   Inflow   Occurrence      Volume      Volume       Error
  Node                 Type           LPS      LPS  days hr:min    10^6 ltr    10^6 ltr     Percent
  -------------------------------------------------------------------------------------------------
  WS02001211           JUNCTION      7.35   389.13     0  03:41       0.212        11.1       0.348
  WS02001212           JUNCTION      0.00   390.85     0  03:41           0        11.1       0.207
  WS02001213           JUNCTION      0.00   392.60     0  03:41           0        11.1       0.238
  WS02003059           JUNCTION      0.00   395.63     0  03:40           0          11       0.328
  WS02003060           JUNCTION     16.53   816.07     0  03:15       0.476          15       0.144
  WS02003066           JUNCTION      0.00   411.87     0  02:44           0        3.56       0.036
  WS02003067           JUNCTION      0.00   411.87     0  02:44           0        3.57       0.115
  WS02003069           JUNCTION      0.32   816.35     0  02:45     0.00922          15       0.151
  WS02003072           JUNCTION      0.00   816.34     0  02:45           0          15       0.198
  WS02003073           JUNCTION      1.82   818.16     0  02:46      0.0524          15       0.212
  WS02004138           JUNCTION      0.00   380.00     0  00:00           0        10.9       0.059
  WS02004139           JUNCTION      0.32   395.52     0  00:00     0.00924        10.9       0.407
  WS02004401           JUNCTION      0.00   412.13     0  02:36           0        3.69       0.377
  WS02004402           JUNCTION      0.00   412.05     0  02:37           0        3.68       0.369
  WS02004403           JUNCTION      0.00   412.05     0  02:37           0        3.66       0.349
  WS02004404           JUNCTION      0.16   412.14     0  02:37     0.00467        3.66       0.294
  WS02004405           JUNCTION      0.04   412.19     0  02:37      0.0011        3.65       0.402
  WS02004406           JUNCTION      0.00   412.25     0  02:37           0        3.63       0.687
  WS02004407           JUNCTION      0.00   412.05     0  02:37           0        3.61       0.082
  WS02004409           JUNCTION      0.00   411.98     0  02:03           0         3.6       0.126
  WS02004410           JUNCTION      0.00   411.94     0  02:42           0         3.6       0.148
  WS02004411           JUNCTION      0.00   411.92     0  02:43           0        3.59       0.166
  WS02004412           JUNCTION      0.00   411.90     0  02:43           0        3.59       0.213
  WS02004413           JUNCTION      0.00   411.91     0  03:14           0        3.58       0.373
  WS02006109           JUNCTION      1.23   412.43     0  02:12      0.0354        3.77       0.298
  WS02006110           JUNCTION      0.00   411.87     0  02:12           0        3.76       0.364
  WS02006111           JUNCTION      0.00   423.75     0  01:57           0        3.74       0.085
  WS02006112           JUNCTION      0.00   414.04     0  02:02           0        3.74       0.624
  WS02006113           JUNCTION      0.00   412.03     0  02:02           0        3.75       0.164
  WS02006115           JUNCTION      0.00   412.59     0  02:02           0        3.71       0.314
  WS02006116           JUNCTION      0.00   412.23     0  02:02           0         3.7       0.240
  WS02006228           JUNCTION      0.00   412.51     0  02:14           0        3.74       0.187
  WS02006229           JUNCTION      0.00   410.84     0  02:12           0        3.75       0.283
  WS02006230           JUNCTION     10.28   410.51     0  02:13       0.296        3.76       0.261
  WS02006231           JUNCTION      0.00   400.35     0  02:07           0        3.47       0.056
  WS02006232           JUNCTION      0.00   400.30     0  02:07           0        3.49       0.571
  WS02006234           JUNCTION      0.00   402.18     0  02:11           0        3.48      -0.096
  WS02006235           JUNCTION      0.00   402.15     0  02:32           0        3.53       0.420
  WS02006238           JUNCTION      0.00   402.28     0  02:48           0        3.44      -0.336
  WS02006239           JUNCTION      0.00   401.41     0  02:11           0        3.42      -0.173
  WS02006240           JUNCTION      0.00   400.92     0  01:57           0        3.41       0.103
  WS02006242           JUNCTION      0.00   400.75     0  02:32           0        3.41       0.329
  WS02006243           JUNCTION      0.00   400.82     0  02:10           0        3.41       0.217
  WS02006245           JUNCTION      0.00   402.83     0  02:27           0        3.43       0.738
  WS02006247           JUNCTION      0.00   400.94     0  02:08           0        3.44       0.190
  WS02006248           JUNCTION      0.00   401.24     0  02:36           0        3.44       0.191
  WS02006249           JUNCTION      0.00   473.21     0  04:06           0        3.47       0.802
  WS02006251           JUNCTION      0.08   404.65     0  03:56     0.00222        3.48       0.124
  WS02006252           JUNCTION      0.00   400.00     0  00:00           0        3.47      -0.068
  WS02006256           JUNCTION      0.00   300.00     0  00:00           0       0.115      -1.848
  WSF200               JUNCTION      0.00   411.87     0  02:44           0        3.56       0.015
  YS02001580           JUNCTION      0.00    74.97     0  02:03           0     0.00392      -0.390
  YS02001583           JUNCTION      0.00   138.15     0  02:03           0      0.0151      -4.320
  YS02001586           JUNCTION    642.38   642.38     0  02:15        1.44        1.45       0.063
  YS02001590           JUNCTION      0.00   318.45     0  02:23           0        1.21       0.027
  YS02001593           JUNCTION      0.00   318.19     0  02:23           0        1.21       0.007
  YS02001596           JUNCTION      0.00   318.11     0  02:14           0        1.21       0.130
  YS02001600           JUNCTION      0.00   318.15     0  02:23           0        1.22       0.556
  YS02001601           JUNCTION   1078.54  1396.05     0  02:14        1.91        3.13       0.287
  YS02001602           JUNCTION      0.00   499.90     0  02:03           0        2.11       0.439
  YS02001605           JUNCTION      0.00   499.18     0  02:03           0        1.98       0.710
  YS02001607           JUNCTION      0.00   497.88     0  02:03           0        1.97       0.994
  YS02001610           JUNCTION      0.00   569.80     0  02:15           0        2.07       1.017
  YS02001613           JUNCTION      0.00   498.62     0  02:03           0        1.72       1.265
  YS02001616           JUNCTION      0.00   498.64     0  02:03           0        1.73       1.110
  YS02001619           JUNCTION   1107.22  1107.22     0  02:14        2.23        3.86       0.470
  YS02001622           JUNCTION      0.00   934.00     0  02:07           0        3.77       0.691
  YS02001625           JUNCTION      0.00  1186.30     0  02:14           0        3.88       1.154
  YS02001629           JUNCTION      0.00   934.34     0  02:07           0           3       0.673
  YS02001633           JUNCTION    834.98  1365.15     0  02:07        1.45        4.28       0.749
  YS02001641           JUNCTION      0.00  1359.22     0  02:07           0        4.09       0.504
  YS02001644           JUNCTION    710.40  1730.75     0  02:07        1.19        5.26       0.488
  YS02001647           JUNCTION      0.00  1729.97     0  02:07           0        5.04       0.545
  YS02001649           JUNCTION      0.00  1939.24     0  02:07           0        6.14       0.603
  YS02001652           JUNCTION      0.00   742.73     0  02:13           0        1.16       1.969
  YS02001655           JUNCTION      0.15   741.17     0  02:13     0.00443        1.17       1.819
  YS02001658           JUNCTION      0.00   740.63     0  02:13           0        1.17       1.057
  YS02001661           JUNCTION      0.00   861.26     0  02:13           0        1.16       0.325
  YS02001664           JUNCTION    722.14   722.14     0  02:13        1.14        1.14      -0.031
  YS02001745           JUNCTION    430.95   430.95     0  02:13       0.651       0.661       0.451
  YS02001748           JUNCTION      0.04   457.61     0  02:10      0.0013        0.68       1.683
  YS02001751           JUNCTION      0.01   437.10     0  02:13    0.000317       0.687       3.053
  YS02001754           JUNCTION      0.26   437.13     0  02:13     0.00749       0.685       3.486
  YS02001757           JUNCTION      0.00  3158.73     0  02:11           0        8.88       1.053
  YS02001759           JUNCTION    630.10  1272.60     0  02:13       0.952        2.19       1.045
  YS02001762           JUNCTION      0.00   700.70     0  02:11           0        1.25       1.702
  YS02001765           JUNCTION      0.00   703.12     0  02:11           0        1.27       1.903
  YS02001767           JUNCTION      0.54   704.97     0  02:11      0.0154        1.31       2.752
  YS02001770           JUNCTION    861.84   861.84     0  02:13         1.4        1.42       2.207
  YS02001774           JUNCTION      0.00   272.28     0  02:08           0        0.12      26.269
  YS02001779           JUNCTION      0.01   273.77     0  02:08    0.000144      0.0802      20.942
  YS02001783           JUNCTION      0.00   977.93     0  02:12           0        3.37       0.006
  YS02001784           JUNCTION      1.06   979.05     0  02:12      0.0305         3.4       0.020
  YS02001786           JUNCTION      0.06   978.70     0  02:12     0.00162         3.4       0.013
  YS02001788           JUNCTION      0.07   979.09     0  02:12     0.00204         3.4       0.007
  YS02001790           JUNCTION      0.15   979.25     0  02:11     0.00446        3.41      -0.021
  YS02001791           JUNCTION      0.00   979.38     0  02:12           0        3.41       0.012
  YS02001793           JUNCTION      0.00   980.15     0  02:11           0        3.41       0.007
  YS02001882           JUNCTION      0.00    35.19     0  02:05           0      0.0126       4.087
  YS02001884           JUNCTION      0.00    72.35     0  02:05           0      0.0485       4.966
  YS02001887           JUNCTION    665.32   665.35     0  02:13       0.984        1.02       0.411
  YS02001890           JUNCTION      0.00   665.80     0  02:13           0       0.977       0.504
  YS02001895           JUNCTION      0.00   517.20     0  02:15           0       0.941       0.158
  YS02001898           JUNCTION      0.00   516.95     0  02:14           0        0.94      -0.014
  YS02001901           JUNCTION      0.00   516.84     0  02:14           0       0.943       0.328
  YS02001904           JUNCTION      0.00   517.03     0  02:15           0       0.947       0.264
  YS02001907           JUNCTION      0.00  1644.49     0  02:13           0        2.91       0.606
  YS02001910           JUNCTION      0.00  1129.56     0  02:13           0        1.97       0.358
  YS02001915           JUNCTION    715.72  1129.75     0  02:13        1.21        2.01       0.071
  YS02001918           JUNCTION      0.00   452.16     0  02:09           0       0.833      -0.008
  YS02001920           JUNCTION      2.87   450.52     0  02:09      0.0827       0.816       0.082
  YS02001923           JUNCTION      0.04   412.71     0  02:09     0.00109       0.717      -0.074
  YS02001926           JUNCTION      0.05   591.47     0  02:08      0.0015       0.695      -0.084
  YS02001929           JUNCTION    373.91   373.91     0  02:14        0.68       0.682      -0.097
  YS02006553           JUNCTION      0.00   676.89     0  02:27           0        2.05       0.577
  YS02006556           JUNCTION      0.00   677.44     0  02:27           0        2.06       0.383
  YS02006558           JUNCTION    860.78   980.03     0  02:11        1.36         3.4       0.092
  YS02006561           JUNCTION      0.00   978.12     0  02:11           0        3.37      -0.004
  YS02163301           JUNCTION      0.00   934.00     0  02:07           0        2.99       0.804
  YS02163601           JUNCTION      0.11  1363.85     0  02:07     0.00317        4.12       0.717
  YS02164001           JUNCTION      0.00  1362.46     0  02:07           0         4.1       0.476
  CC-1                 OUTFALL       0.00   683.00     0  00:00           0       0.208       0.000
  CC-2                 OUTFALL       0.00   683.00     0  00:00           0       0.208       0.000
  JK-1                 OUTFALL       0.00  1000.00     0  00:00           0      0.0791       0.000
  JK-2                 OUTFALL       0.00  1000.00     0  00:00           0        0.38       0.000
  WSC                  OUTFALL       0.00   818.15     0  02:46           0          15       0.000
  CC-storage           STORAGE       0.00  3158.06     0  02:12           0        10.9       0.378
  JK-storage           STORAGE       0.00   995.20     0  07:52           0        3.56      -0.704
  XR-storage           STORAGE     200.00   200.00     0  00:00        5.76        6.36     -41.886
  
  
  **********************
  Node Surcharge Summary
  **********************
  
  Surcharging occurs when water rises above the top of the highest conduit.
  ---------------------------------------------------------------------
                                               Max. Height   Min. Depth
                                   Hours       Above Crown    Below Rim
  Node                 Type      Surcharged         Meters       Meters
  ---------------------------------------------------------------------
  WS02006109           JUNCTION        1.77          0.017        1.803
  WS02006228           JUNCTION        1.76          0.020        2.180
  WS02006229           JUNCTION        1.78          0.030        2.420
  WS02006232           JUNCTION        1.83          0.050        1.430
  WS02006235           JUNCTION        1.78          0.055        1.235
  WS02006238           JUNCTION        1.80          0.091        1.339
  WS02006239           JUNCTION        1.78          0.067        1.223
  WS02006240           JUNCTION        1.79          0.081        1.309
  WS02006242           JUNCTION        1.86          0.173        0.647
  WS02006243           JUNCTION        1.80          0.133        0.637
  WS02006245           JUNCTION        1.80          0.146        0.704
  WS02006247           JUNCTION        1.82          0.185        0.575
  WS02006248           JUNCTION        1.80          0.139        0.241
  WS02006249           JUNCTION        1.81          0.201        0.189
  WS02006252           JUNCTION        2.35          1.100        0.000
  WS02006256           JUNCTION        3.95          2.050        0.000
  YS02001580           JUNCTION        0.52          0.450        0.000
  YS02001583           JUNCTION        0.53          0.476        0.024
  YS02001586           JUNCTION        0.73          0.510        0.000
  YS02001590           JUNCTION        0.83          0.750        0.000
  YS02001593           JUNCTION        0.85          0.720        0.120
  YS02001596           JUNCTION        1.04          0.955        0.115
  YS02001600           JUNCTION        1.40          1.190        0.000
  YS02001601           JUNCTION        6.28          1.440        0.000
  YS02001602           JUNCTION        6.22          1.270        0.000
  YS02001605           JUNCTION        6.19          1.175        0.005
  YS02001607           JUNCTION        1.07          0.645        0.035
  YS02001610           JUNCTION        1.23          0.680        0.000
  YS02001613           JUNCTION        1.09          0.657        0.043
  YS02001616           JUNCTION        1.00          0.601        0.009
  YS02001619           JUNCTION        0.98          0.610        0.000
  YS02001622           JUNCTION        1.00          0.579        0.041
  YS02001625           JUNCTION        5.99          0.780        0.000
  YS02001629           JUNCTION        0.96          0.470        0.000
  YS02001633           JUNCTION        6.00          1.060        0.000
  YS02001641           JUNCTION        5.97          1.071        0.029
  YS02001644           JUNCTION        5.95          0.920        0.000
  YS02001647           JUNCTION        5.88          0.732        0.168
  YS02001649           JUNCTION        5.88          0.939        0.111
  YS02001652           JUNCTION        5.86          0.739        0.391
  YS02001655           JUNCTION        0.89          0.663        0.537
  YS02001658           JUNCTION        0.19          0.687        0.613
  YS02001748           JUNCTION        0.12          0.202        0.988
  YS02001751           JUNCTION        0.78          0.397        0.803
  YS02001754           JUNCTION        5.85          0.577        0.573
  YS02001757           JUNCTION        5.88          0.969        0.241
  YS02001759           JUNCTION        5.87          0.955        0.255
  YS02001762           JUNCTION        5.87          0.938        0.212
  YS02001765           JUNCTION        5.86          0.908        0.192
  YS02001767           JUNCTION        5.86          0.959        0.071
  YS02001770           JUNCTION        5.86          0.920        0.000
  YS02001774           JUNCTION        5.87          1.050        0.000
  YS02001779           JUNCTION        5.27          0.680        0.000
  YS02001783           JUNCTION        0.70          0.712        0.888
  YS02001784           JUNCTION        0.71          0.655        0.835
  YS02001786           JUNCTION        0.71          0.496        0.934
  YS02001788           JUNCTION        0.70          0.358        1.122
  YS02001790           JUNCTION        5.92          0.518        0.639
  YS02001791           JUNCTION        5.93          0.487        1.433
  YS02001793           JUNCTION        5.96          0.831        1.769
  YS02001882           JUNCTION        0.44          0.660        0.170
  YS02001884           JUNCTION        0.46          0.693        0.177
  YS02001887           JUNCTION        0.49          0.780        0.170
  YS02001890           JUNCTION        0.50          0.760        0.000
  YS02001895           JUNCTION        0.43          0.570        0.180
  YS02001898           JUNCTION        0.43          0.540        0.200
  YS02001901           JUNCTION        0.47          0.684        0.186
  YS02001904           JUNCTION        0.47          0.640        0.210
  YS02001907           JUNCTION        0.70          0.950        0.000
  YS02001910           JUNCTION        0.52          0.961        0.139
  YS02001915           JUNCTION        0.44          0.906        0.094
  YS02001918           JUNCTION        0.35          0.810        0.000
  YS02001920           JUNCTION        0.37          1.127        0.013
  YS02001923           JUNCTION        0.02          0.820        0.000
  YS02001926           JUNCTION        0.03          0.900        0.000
  YS02001929           JUNCTION        0.01          0.780        0.000
  YS02006553           JUNCTION        0.72          0.978        0.212
  YS02006556           JUNCTION        0.62          0.917        0.433
  YS02006558           JUNCTION        0.60          0.930        0.470
  YS02006561           JUNCTION        0.40          0.319        0.831
  YS02163301           JUNCTION        5.99          0.959        0.071
  YS02163601           JUNCTION        6.01          1.080        0.000
  YS02164001           JUNCTION        5.97          1.100        0.000
  
  
  *********************
  Node Flooding Summary
  *********************
  
  Flooding refers to all water that overflows a node, whether it ponds or not.
  --------------------------------------------------------------------------
                                                             Total   Maximum
                                 Maximum   Time of Max       Flood    Ponded
                        Hours       Rate    Occurrence      Volume     Depth
  Node                 Flooded       LPS   days hr:min    10^6 ltr    Meters
  --------------------------------------------------------------------------
  WS02006252              0.01    245.63      0  00:00       0.000     0.000
  WS02006256              0.10    293.19      0  00:00       0.018     0.000
  YS02001586              0.40    324.90      0  02:15       0.231     0.000
  YS02001590              0.01      3.67      0  02:04       0.000     0.000
  YS02001600              0.01      2.64      0  02:04       0.000     0.000
  YS02001601              0.62    998.03      0  02:14       1.010     0.000
  YS02001602              0.61     62.39      0  02:32       0.125     0.000
  YS02001610              0.45    568.94      0  02:15       0.446     0.000
  YS02001619              0.01      0.36      0  02:10       0.000     0.000
  YS02001625              0.56   1186.27      0  02:14       0.972     0.000
  YS02001629              0.08    112.65      0  02:12       0.018     0.000
  YS02001633              0.01      3.78      0  02:10       0.000     0.000
  YS02001644              0.14    599.92      0  02:13       0.185     0.000
  YS02001770              0.01     12.84      0  02:10       0.000     0.000
  YS02001774              0.01      5.93      0  02:10       0.000     0.000
  YS02001779              0.12    242.47      0  02:13       0.057     0.000
  YS02001890              0.12    152.42      0  02:13       0.030     0.000
  YS02001907              0.29   1528.64      0  02:13       0.853     0.000
  YS02001918              0.01    120.76      0  02:08       0.001     0.000
  YS02001923              0.01    120.94      0  02:08       0.000     0.000
  YS02001926              0.01     28.81      0  02:08       0.000     0.000
  YS02001929              0.01    182.96      0  02:08       0.001     0.000
  YS02163601              0.01      7.11      0  02:10       0.000     0.000
  YS02164001              0.01      7.43      0  02:10       0.000     0.000
  CC-storage              0.45    886.93      0  02:40       0.764     0.000
  JK-storage              5.90    979.72      0  02:12       2.974     0.000
  
  
  **********************
  Storage Volume Summary
  **********************
  
  ------------------------------------------------------------------------------------------------
                         Average    Avg   Evap  Exfil     Maximum    Max    Time of Max    Maximum
                          Volume   Pcnt   Pcnt   Pcnt      Volume   Pcnt     Occurrence    Outflow
  Storage Unit           1000 m³   Full   Loss   Loss     1000 m³   Full    days hr:min        LPS
  ------------------------------------------------------------------------------------------------
  CC-storage               4.910   76.6    0.0    0.0       6.410  100.0       0  02:40    1783.53
  JK-storage               0.225   77.4    0.0    0.0       0.291  100.0       0  01:57    2300.00
  XR-storage               0.031    2.2    0.0    0.0       0.600   41.7       0  00:00     380.00
  
  
  ***********************
  Outfall Loading Summary
  ***********************
  
  -----------------------------------------------------------
                         Flow       Avg       Max       Total
                         Freq      Flow      Flow      Volume
  Outfall Node           Pcnt       LPS       LPS    10^6 ltr
  -----------------------------------------------------------
  CC-1                   1.15    683.00    683.00       0.208
  CC-2                   1.15    683.00    683.00       0.208
  JK-1                   1.07    347.46   1000.00       0.079
  JK-2                   2.25    690.04   1000.00       0.380
  WSC                   99.93    558.81    818.15      14.984
  -----------------------------------------------------------
  System                21.11   2962.32   3366.35      15.860
  
  
  ********************
  Link Flow Summary
  ********************
  
  -----------------------------------------------------------------------------
                                 Maximum  Time of Max   Maximum    Max/    Max/
                                  |Flow|   Occurrence   |Veloc|    Full    Full
  Link                 Type          LPS  days hr:min     m/sec    Flow   Depth
  -----------------------------------------------------------------------------
  1                    CONDUIT    818.15     0  02:46      3.15    0.28    0.37
  WS02001211WS02001212 CONDUIT    390.85     0  03:41      0.78    0.30    0.64
  WS02001212WS02001213 CONDUIT    392.60     0  03:41      1.32    0.61    0.45
  WS02001213WS02003059 CONDUIT    395.63     0  03:40      0.85    0.65    0.75
  WS02003059WS02003060 CONDUIT    399.94     0  03:40      0.95    0.26    0.63
  WS02003060WS02003069 CONDUIT    816.03     0  02:45      1.80    0.32    0.42
  WS02003066WSF200     CONDUIT    411.87     0  02:44      2.69    0.07    0.19
  WS02003067WS02003066 CONDUIT    411.87     0  02:44      1.04    0.13    0.38
  WS02003069WS02003072 CONDUIT    816.34     0  02:45      1.55    0.39    0.47
  WS02003072WS02003073 CONDUIT    816.34     0  02:46      1.64    1.76    0.45
  WS02004138WS02004139 CONDUIT    395.20     0  00:00      3.65    0.08    0.43
  WS02004139WS02001211 CONDUIT    381.78     0  03:41      0.91    0.48    0.59
  WS02004401WS02004402 CONDUIT    412.05     0  02:37      0.99    0.49    0.77
  WS02004402WS02004403 CONDUIT    412.05     0  02:37      0.99    0.59    0.79
  WS02004403WS02004404 CONDUIT    411.98     0  02:37      0.93    0.30    0.84
  WS02004404WS02004405 CONDUIT    412.15     0  02:37      1.10    4.04    0.88
  WS02004405WS02004406 CONDUIT    412.25     0  02:37      1.03    0.81    0.88
  WS02004406WS02004407 CONDUIT    412.05     0  02:37      0.89    0.18    0.57
  WS02004407WS02004409 CONDUIT    411.98     0  02:03      1.42    0.15    0.42
  WS02004409WS02004410 CONDUIT    411.94     0  02:42      0.92    0.53    0.58
  WS02004410WS02004411 CONDUIT    411.92     0  02:43      0.86    0.56    0.60
  WS02004411WS02004412 CONDUIT    411.90     0  02:43      0.81    0.59    0.61
  WS02004412WS02004413 CONDUIT    411.91     0  03:14      0.70    0.28    0.70
  WS02004413WS02003067 CONDUIT    411.87     0  02:44      0.96    0.18    0.53
  WS02006109WS02006110 CONDUIT    411.87     0  02:12      0.84    0.79    0.94
  WS02006110WS02006113 CONDUIT    412.03     0  02:02      1.03    0.37    0.75
  WS02006111WS02006112 CONDUIT    414.04     0  02:02      1.83    0.20    0.65
  WS02006112WS02006115 CONDUIT    412.59     0  02:02      0.71    0.24    0.78
  WS02006113WS02006111 CONDUIT    423.75     0  01:57      2.25    0.51    0.40
  WS02006115WS02006116 CONDUIT    412.23     0  02:02      0.98    0.53    0.66
  WS02006116WS02004401 CONDUIT    412.13     0  02:36      1.00    0.57    0.74
  WS02006228WS02006109 CONDUIT    411.20     0  02:12      1.06    1.80    1.00
  WS02006229WS02006228 CONDUIT    412.51     0  02:14      1.13    1.37    1.00
  WS02006230WS02006229 CONDUIT    410.84     0  02:12      1.22    9.14    1.00
  WS02006231WS02006230 CONDUIT    400.24     0  02:13      1.37    6.07    0.77
  WS02006232WS02006231 CONDUIT    400.35     0  02:07      1.08    0.84    0.92
  WS02006234WS02006232 CONDUIT    400.30     0  02:07      1.40    0.81    1.00
  WS02006235WS02006234 CONDUIT    402.18     0  02:11      1.29    4.24    0.99
  WS02006238WS02006235 CONDUIT    402.13     0  02:32      1.51    0.90    1.00
  WS02006239WS02006238 CONDUIT    402.28     0  02:48      1.22    1.29    1.00
  WS02006240WS02006239 CONDUIT    401.41     0  02:11      1.30    1.26    1.00
  WS02006242WS02006240 CONDUIT    400.92     0  01:57      1.17    1.59    1.00
  WS02006243WS02006242 CONDUIT    400.75     0  02:32      1.42    0.86    1.00
  WS02006245WS02006243 CONDUIT    400.82     0  02:10      1.45    1.19    1.00
  WS02006247WS02006245 CONDUIT    402.83     0  02:27      1.43    3.19    1.00
  WS02006248WS02006247 CONDUIT    400.94     0  02:08      1.46    0.87    1.00
  WS02006249WS02006248 CONDUIT    401.24     0  02:36      1.41    2.20    1.00
  WS02006251WS02006249 CONDUIT    473.21     0  04:06      1.99    1.36    1.00
  WS02006252WS02006251 CONDUIT    404.57     0  03:56     25.37    1.48    1.00
  WS02006256WS02006235 CONDUIT    288.91     0  00:00      4.23    3.06    1.00
  WSF200WS02003060     CONDUIT    411.87     0  02:44      1.43    0.09    0.30
  YS02001580YS02001583 CONDUIT     74.97     0  02:03      0.56    0.29    1.00
  YS02001583YS02001586 CONDUIT    138.15     0  02:03      0.56    0.21    1.00
  YS02001586YS02001590 CONDUIT    318.45     0  02:23      1.26    0.56    1.00
  YS02001590YS02001593 CONDUIT    318.19     0  02:23      1.13    2.00    1.00
  YS02001593YS02001596 CONDUIT    318.11     0  02:14      1.62    0.50    1.00
  YS02001596YS02001600 CONDUIT    318.15     0  02:23      1.13    0.62    1.00
  YS02001600YS02001601 CONDUIT    318.14     0  02:23      1.13    0.55    1.00
  YS02001601YS02001602 CONDUIT    499.90     0  02:03      1.77    1.81    1.00
  YS02001602YS02001605 CONDUIT    499.18     0  02:03      1.77   10.56    1.00
  YS02001605YS02001607 CONDUIT    497.88     0  02:03      1.76    2.73    1.00
  YS02001607YS02001610 CONDUIT    498.00     0  02:02      0.63    0.47    1.00
  YS02001610YS02001613 CONDUIT    498.62     0  02:03      0.63    0.57    1.00
  YS02001613YS02001616 CONDUIT    498.64     0  02:03      0.64    0.43    1.00
  YS02001616YS02001619 CONDUIT    493.52     0  02:03      0.66    0.86    1.00
  YS02001619YS02001622 CONDUIT    934.00     0  02:07      1.19    1.38    1.00
  YS02001622YS02001625 CONDUIT    933.88     0  02:07      1.19    0.50    1.00
  YS02001625YS02001629 CONDUIT    934.34     0  02:07      1.19    0.44    1.00
  YS02001629YS02163301 CONDUIT    934.00     0  02:07      1.19    1.15    1.00
  YS02001633YS02163601 CONDUIT   1363.74     0  02:07      1.74    1.43    1.00
  YS02001641YS02001644 CONDUIT   1358.07     0  02:07      1.73    4.39    1.00
  YS02001644YS02001647 CONDUIT   1729.97     0  02:07      2.23    1.02    1.00
  YS02001647YS02001649 CONDUIT   1726.83     0  02:07      2.31    0.91    1.00
  YS02001649YS02001757 CONDUIT   1897.47     0  02:06      2.49    1.15    1.00
  YS02001652YS02001649 CONDUIT    744.80     0  02:13      0.95    0.37    1.00
  YS02001655YS02001652 CONDUIT    742.73     0  02:13      1.26    0.36    1.00
  YS02001658YS02001655 CONDUIT    741.02     0  02:13      1.85    0.31    1.00
  YS02001661YS02001658 CONDUIT    740.63     0  02:13      2.26    0.29    1.00
  YS02001664YS02001661 CONDUIT    861.26     0  02:13      2.23    0.27    0.71
  YS02001745YS02001748 CONDUIT    457.57     0  02:10      2.07    0.18    0.87
  YS02001748YS02001751 CONDUIT    437.09     0  02:13      1.63    0.22    1.00
  YS02001751YS02001754 CONDUIT    436.87     0  02:13      1.35    0.21    1.00
  YS02001754YS02001757 CONDUIT    435.84     0  02:13      0.55    0.18    1.00
  YS02001757CaochengTiaoxuchi CONDUIT   3158.06     0  02:12      4.02    1.37    1.00
  YS02001759YS02001757 CONDUIT   1274.21     0  02:13      1.62    0.91    1.00
  YS02001762YS02001759 CONDUIT    701.25     0  02:11      0.89    0.81    1.00
  YS02001765YS02001762 CONDUIT    700.70     0  02:11      0.89    0.66    1.00
  YS02001767YS02001765 CONDUIT    703.12     0  02:11      0.90    0.88    1.00
  YS02001770YS02001767 CONDUIT    704.44     0  02:11      0.90    2.79    1.00
  YS02001774YS02001770 CONDUIT    272.28     0  02:08      0.35    0.17    1.00
  YS02001779YS02001774 CONDUIT    273.76     0  02:08      0.35    0.14    1.00
  YS02001783YS02001784 CONDUIT    977.99     0  02:12      1.95    1.35    1.00
  YS02001784YS02001785 CONDUIT    978.64     0  02:12      1.95    2.28    1.00
  YS02001786YS02001788 CONDUIT    979.02     0  02:12      1.96    1.89    1.00
  YS02001788YS02001790 CONDUIT    979.10     0  02:11      2.02    0.72    1.00
  YS02001790YS02001791 CONDUIT    979.38     0  02:12      2.46    1.07    1.00
  YS02001791YS02001793 CONDUIT    980.15     0  02:11      4.51    0.42    1.00
  YS02001793JiankangQianchi CONDUIT    995.20     0  07:52      1.54    0.08    1.00
  YS02001882YS02001884 CONDUIT     35.19     0  02:05      0.13    0.04    1.00
  YS02001884YS02001887 CONDUIT     72.35     0  02:05      0.10    0.10    1.00
  YS02001887YS02001890 CONDUIT    665.80     0  02:13      0.85    1.14    1.00
  YS02001890YS02001895 CONDUIT    517.20     0  02:15      0.66    0.24    1.00
  YS02001895YS02001898 CONDUIT    516.95     0  02:14      0.66    0.90    1.00
  YS02001898YS02001901 CONDUIT    516.84     0  02:14      0.66    0.33    1.00
  YS02001901YS02001904 CONDUIT    517.03     0  02:15      0.66    0.80    1.00
  YS02001904YS02001907 CONDUIT    517.30     0  02:15      0.66    0.18    1.00
  YS02001907YS02006553 CONDUIT    676.89     0  02:27      0.75    0.80    1.00
  YS02001910YS02001907 CONDUIT   1130.06     0  02:13      1.44    0.64    1.00
  YS02001915YS02001910 CONDUIT   1129.56     0  02:13      1.44    0.56    1.00
  YS02001918YS02001915 CONDUIT    454.74     0  02:09      0.58    0.25    1.00
  YS02001920YS02001918 CONDUIT    452.16     0  02:09      0.63    0.44    1.00
  YS02001923YS02001920 CONDUIT    447.65     0  02:09      0.71    0.20    1.00
  YS02001926YS02001923 CONDUIT    412.68     0  02:09      0.94    0.59    1.00
  YS02001929YS02001926 CONDUIT    408.50     0  02:09      1.09    0.19    1.00
  YS02006553YS02006556 CONDUIT    677.44     0  02:27      0.86    0.58    1.00
  YS02006556YS02006558 CONDUIT    678.14     0  02:27      0.86    0.54    1.00
  YS02006558YS02006561 CONDUIT    978.12     0  02:11      3.46    2.16    1.00
  YS02006561YS02001783 CONDUIT    977.93     0  02:12      2.00    0.51    1.00
  YS02163301YS02001633 CONDUIT    932.41     0  02:07      1.19    0.88    1.00
  YS02163601YS02164001 CONDUIT   1362.46     0  02:07      1.73    1.21    1.00
  YS02164001YS02001641 CONDUIT   1359.22     0  02:07      1.73    1.86    1.00
  CC-R1                PUMP       683.00     0  00:00              1.00
  CC-R2                PUMP       683.00     0  00:00              1.00
  CC-S1                PUMP       200.00     0  00:00              1.00
  CC-S2                PUMP       200.00     0  00:00              1.00
  JK-R1                PUMP      1000.00     0  00:00              1.00
  JK-R2                PUMP      1000.00     0  00:00              1.00
  JK-S                 PUMP       300.00     0  00:00              1.00
  XR-1                 PUMP        95.00     0  00:00              1.00
  XR-2                 PUMP        95.00     0  00:00              1.00
  XR-3                 PUMP        95.00     0  00:00              1.00
  XR-4                 PUMP        95.00     0  00:00              1.00
  
  
  ***************************
  Flow Classification Summary
  ***************************
  
  -------------------------------------------------------------------------------------
                      Adjusted    ---------- Fraction of Time in Flow Class ---------- 
                       /Actual         Up    Down  Sub   Sup   Up    Down  Norm  Inlet 
  Conduit               Length    Dry  Dry   Dry   Crit  Crit  Crit  Crit  Ltd   Ctrl  
  -------------------------------------------------------------------------------------
  1                       1.00   0.00  0.00  0.00  0.00  1.00  0.00  0.00  0.22  0.00
  WS02001211WS02001212    1.00   0.00  0.00  0.00  1.00  0.00  0.00  0.00  0.00  0.00
  WS02001212WS02001213    1.00   0.00  0.00  0.00  0.45  0.00  0.55  0.00  0.00  0.00
  WS02001213WS02003059    1.00   0.00  0.00  0.00  0.99  0.00  0.00  0.00  0.00  0.00
  WS02003059WS02003060    1.00   0.00  0.00  0.00  1.00  0.00  0.00  0.00  0.00  0.00
  WS02003060WS02003069    1.00   0.00  0.00  0.00  0.99  0.01  0.00  0.00  0.00  0.00
  WS02003066WSF200        1.00   0.02  0.10  0.00  0.00  0.88  0.00  0.00  0.86  0.00
  WS02003067WS02003066    1.00   0.10  0.02  0.00  0.89  0.00  0.00  0.00  0.00  0.00
  WS02003069WS02003072    1.00   0.00  0.00  0.00  0.99  0.01  0.00  0.00  0.00  0.00
  WS02003072WS02003073    1.00   0.00  0.00  0.00  0.00  0.00  0.00  1.00  0.00  0.00
  WS02004138WS02004139    1.00   0.00  0.00  0.00  0.99  0.01  0.00  0.00  1.00  0.00
  WS02004139WS02001211    1.00   0.00  0.00  0.00  1.00  0.00  0.00  0.00  0.00  0.00
  WS02004401WS02004402    1.00   0.02  0.00  0.00  0.98  0.00  0.00  0.00  0.00  0.00
  WS02004402WS02004403    1.00   0.02  0.00  0.00  0.98  0.00  0.00  0.00  0.00  0.00
  WS02004403WS02004404    1.00   0.00  0.03  0.00  0.97  0.00  0.00  0.00  0.00  0.00
  WS02004404WS02004405    1.00   0.00  0.00  0.00  1.00  0.00  0.00  0.00  0.01  0.00
  WS02004405WS02004406    1.00   0.00  0.00  0.00  1.00  0.00  0.00  0.00  0.00  0.00
  WS02004406WS02004407    1.00   0.00  0.05  0.00  0.95  0.00  0.00  0.00  0.00  0.00
  WS02004407WS02004409    1.00   0.05  0.00  0.00  0.94  0.01  0.00  0.00  0.94  0.00
  WS02004409WS02004410    1.00   0.05  0.00  0.00  0.95  0.00  0.00  0.00  0.02  0.00
  WS02004410WS02004411    1.00   0.05  0.00  0.00  0.95  0.00  0.00  0.00  0.00  0.00
  WS02004411WS02004412    1.00   0.05  0.00  0.00  0.95  0.00  0.00  0.00  0.00  0.00
  WS02004412WS02004413    1.00   0.05  0.00  0.00  0.94  0.00  0.00  0.00  0.01  0.00
  WS02004413WS02003067    1.00   0.06  0.04  0.00  0.00  0.00  0.90  0.00  0.00  0.00
  WS02006109WS02006110    1.00   0.00  0.01  0.00  0.98  0.00  0.01  0.00  0.00  0.00
  WS02006110WS02006113    1.00   0.01  0.01  0.00  0.98  0.00  0.00  0.00  0.00  0.00
  WS02006111WS02006112    1.00   0.02  0.00  0.00  0.98  0.00  0.00  0.00  0.98  0.00
  WS02006112WS02006115    1.00   0.02  0.00  0.00  0.97  0.00  0.00  0.00  0.00  0.00
  WS02006113WS02006111    1.00   0.02  0.00  0.00  0.00  0.98  0.00  0.00  0.15  0.00
  WS02006115WS02006116    1.00   0.02  0.00  0.00  0.97  0.00  0.00  0.01  0.00  0.00
  WS02006116WS02004401    1.00   0.02  0.00  0.00  0.98  0.00  0.00  0.00  0.00  0.00
  WS02006228WS02006109    1.00   0.00  0.00  0.00  1.00  0.00  0.00  0.00  0.01  0.00
  WS02006229WS02006228    1.00   0.00  0.00  0.00  0.99  0.00  0.00  0.01  0.00  0.00
  WS02006230WS02006229    1.00   0.00  0.00  0.00  0.99  0.00  0.00  0.01  0.00  0.00
  WS02006231WS02006230    1.00   0.00  0.00  0.00  0.24  0.00  0.76  0.00  0.00  0.00
  WS02006232WS02006231    1.00   0.00  0.00  0.00  0.99  0.00  0.01  0.00  0.00  0.00
  WS02006234WS02006232    1.00   0.00  0.00  0.00  1.00  0.00  0.00  0.00  0.41  0.00
  WS02006235WS02006234    1.00   0.00  0.00  0.00  0.55  0.00  0.45  0.00  0.00  0.00
  WS02006238WS02006235    1.00   0.00  0.00  0.00  1.00  0.00  0.00  0.00  0.00  0.00
  WS02006239WS02006238    1.00   0.00  0.00  0.00  1.00  0.00  0.00  0.00  0.50  0.00
  WS02006240WS02006239    1.00   0.00  0.00  0.00  0.46  0.00  0.00  0.54  0.02  0.00
  WS02006242WS02006240    1.00   0.00  0.00  0.00  0.98  0.00  0.01  0.00  0.00  0.00
  WS02006243WS02006242    1.00   0.00  0.00  0.00  0.98  0.00  0.00  0.01  0.61  0.00
  WS02006245WS02006243    1.00   0.00  0.00  0.00  0.51  0.00  0.00  0.49  0.00  0.00
  WS02006247WS02006245    1.00   0.00  0.00  0.00  0.98  0.00  0.00  0.02  0.00  0.00
  WS02006248WS02006247    1.00   0.00  0.00  0.00  0.99  0.00  0.00  0.01  0.17  0.00
  WS02006249WS02006248    1.00   0.00  0.00  0.00  0.37  0.00  0.63  0.00  0.00  0.00
  WS02006251WS02006249    1.00   0.00  0.00  0.00  0.99  0.01  0.00  0.00  0.64  0.00
  WS02006252WS02006251    1.00   0.00  0.25  0.00  0.00  0.00  0.75  0.00  0.04  0.00
  WS02006256WS02006235    1.00   0.00  0.00  0.00  1.00  0.00  0.00  0.00  0.00  0.00
  WSF200WS02003060        1.00   0.00  0.02  0.00  0.98  0.00  0.00  0.00  0.66  0.00
  YS02001580YS02001583    1.00   0.25  0.55  0.00  0.19  0.00  0.00  0.00  0.64  0.00
  YS02001583YS02001586    1.00   0.48  0.27  0.00  0.24  0.00  0.00  0.00  0.65  0.00
  YS02001586YS02001590    1.00   0.13  0.00  0.00  0.41  0.04  0.00  0.43  0.33  0.00
  YS02001590YS02001593    1.00   0.13  0.01  0.00  0.13  0.00  0.73  0.00  0.00  0.00
  YS02001593YS02001596    1.00   0.13  0.00  0.00  0.76  0.00  0.00  0.10  0.63  0.00
  YS02001596YS02001600    1.00   0.13  0.00  0.00  0.80  0.01  0.00  0.06  0.03  0.00
  YS02001600YS02001601    1.00   0.13  0.01  0.00  0.86  0.00  0.00  0.00  0.04  0.00
  YS02001601YS02001602    1.00   0.13  0.01  0.00  0.87  0.00  0.00  0.00  0.00  0.00
  YS02001602YS02001605    1.00   0.13  0.00  0.00  0.87  0.00  0.00  0.00  0.00  0.00
  YS02001605YS02001607    1.00   0.14  0.00  0.00  0.86  0.00  0.00  0.00  0.00  0.00
  YS02001607YS02001610    1.00   0.13  0.01  0.00  0.86  0.00  0.00  0.00  0.01  0.00
  YS02001610YS02001613    1.00   0.13  0.00  0.00  0.87  0.00  0.00  0.00  0.00  0.00
  YS02001613YS02001616    1.00   0.13  0.00  0.00  0.87  0.00  0.00  0.00  0.00  0.00
  YS02001616YS02001619    1.00   0.13  0.00  0.00  0.87  0.00  0.00  0.00  0.00  0.00
  YS02001619YS02001622    1.00   0.13  0.00  0.00  0.87  0.00  0.00  0.00  0.00  0.00
  YS02001622YS02001625    1.00   0.13  0.00  0.00  0.87  0.00  0.00  0.00  0.04  0.00
  YS02001625YS02001629    1.00   0.13  0.05  0.00  0.77  0.00  0.05  0.00  0.00  0.00
  YS02001629YS02163301    1.00   0.15  0.01  0.00  0.84  0.00  0.00  0.00  0.00  0.00
  YS02001633YS02163601    1.00   0.00  0.01  0.00  0.99  0.00  0.00  0.00  0.15  0.00
  YS02001641YS02001644    1.00   0.00  0.01  0.00  0.99  0.00  0.00  0.00  0.00  0.00
  YS02001644YS02001647    1.00   0.00  0.17  0.00  0.83  0.00  0.00  0.00  0.00  0.00
  YS02001647YS02001649    1.00   0.00  0.17  0.00  0.79  0.04  0.00  0.00  0.02  0.00
  YS02001649YS02001757    1.00   0.00  0.00  0.00  0.95  0.05  0.00  0.00  0.18  0.00
  YS02001652YS02001649    1.00   0.00  0.00  0.00  0.97  0.03  0.00  0.00  0.17  0.00
  YS02001655YS02001652    1.00   0.00  0.00  0.00  0.77  0.01  0.00  0.22  0.02  0.00
  YS02001658YS02001655    1.00   0.00  0.14  0.00  0.74  0.12  0.00  0.00  0.06  0.00
  YS02001661YS02001658    1.00   0.14  0.00  0.00  0.73  0.13  0.00  0.00  0.04  0.00
  YS02001664YS02001661    1.00   0.13  0.00  0.00  0.81  0.06  0.00  0.00  0.85  0.00
  YS02001745YS02001748    1.00   0.00  0.00  0.00  0.73  0.00  0.00  0.27  0.00  0.00
  YS02001748YS02001751    1.00   0.00  0.00  0.00  0.87  0.13  0.00  0.00  0.13  0.00
  YS02001751YS02001754    1.00   0.00  0.00  0.00  0.75  0.01  0.00  0.24  0.01  0.00
  YS02001754YS02001757    1.00   0.00  0.00  0.00  1.00  0.00  0.00  0.00  0.24  0.00
  YS02001757CaochengTiaoxuchi    1.00   0.00  0.00  0.00  1.00  0.00  0.00  0.00  0.22  0.00
  YS02001759YS02001757    1.00   0.00  0.00  0.00  0.99  0.01  0.00  0.00  0.06  0.00
  YS02001762YS02001759    1.00   0.00  0.00  0.00  1.00  0.00  0.00  0.00  0.03  0.00
  YS02001765YS02001762    1.00   0.00  0.00  0.00  1.00  0.00  0.00  0.00  0.15  0.00
  YS02001767YS02001765    1.00   0.00  0.00  0.00  1.00  0.00  0.00  0.00  0.00  0.00
  YS02001770YS02001767    1.00   0.00  0.00  0.00  1.00  0.00  0.00  0.00  0.00  0.00
  YS02001774YS02001770    1.00   0.00  0.13  0.00  0.87  0.00  0.00  0.00  0.03  0.00
  YS02001779YS02001774    1.00   0.00  0.00  0.00  1.00  0.00  0.00  0.00  0.18  0.00
  YS02001783YS02001784    1.00   0.00  0.18  0.00  0.82  0.00  0.00  0.00  0.01  0.00
  YS02001784YS02001785    1.00   0.00  0.00  0.00  1.00  0.00  0.00  0.00  0.18  0.00
  YS02001786YS02001788    1.00   0.00  0.00  0.00  0.94  0.06  0.00  0.00  0.00  0.00
  YS02001788YS02001790    1.00   0.00  0.00  0.00  0.93  0.07  0.00  0.00  0.20  0.00
  YS02001790YS02001791    1.00   0.00  0.00  0.00  0.76  0.24  0.00  0.00  0.05  0.00
  YS02001791YS02001793    1.00   0.00  0.00  0.00  0.75  0.25  0.00  0.00  0.01  0.00
  YS02001793JiankangQianchi    1.00   0.00  0.00  0.00  0.93  0.06  0.00  0.00  0.22  0.00
  YS02001882YS02001884    1.00   0.15  0.01  0.00  0.84  0.00  0.00  0.00  0.00  0.00
  YS02001884YS02001887    1.00   0.06  0.05  0.00  0.89  0.00  0.00  0.00  0.00  0.00
  YS02001887YS02001890    1.00   0.00  0.00  0.00  0.97  0.00  0.03  0.00  0.00  0.00
  YS02001890YS02001895    1.00   0.00  0.16  0.00  0.84  0.00  0.00  0.00  0.00  0.00
  YS02001895YS02001898    1.00   0.16  0.00  0.00  0.82  0.00  0.02  0.00  0.00  0.00
  YS02001898YS02001901    1.00   0.16  0.00  0.00  0.84  0.00  0.00  0.00  0.01  0.00
  YS02001901YS02001904    1.00   0.16  0.00  0.00  0.84  0.00  0.00  0.00  0.00  0.00
  YS02001904YS02001907    1.00   0.00  0.16  0.00  0.84  0.00  0.00  0.00  0.00  0.00
  YS02001907YS02006553    1.00   0.00  0.02  0.00  0.98  0.00  0.00  0.00  0.00  0.00
  YS02001910YS02001907    1.00   0.00  0.00  0.00  0.97  0.00  0.00  0.03  0.12  0.00
  YS02001915YS02001910    1.00   0.00  0.00  0.00  0.97  0.03  0.00  0.00  0.16  0.00
  YS02001918YS02001915    1.00   0.00  0.01  0.00  0.98  0.02  0.00  0.00  0.76  0.00
  YS02001920YS02001918    1.00   0.00  0.01  0.00  0.99  0.00  0.00  0.00  0.00  0.00
  YS02001923YS02001920    1.00   0.00  0.00  0.00  1.00  0.00  0.00  0.00  0.93  0.00
  YS02001926YS02001923    1.00   0.00  0.07  0.00  0.06  0.00  0.87  0.00  0.00  0.00
  YS02001929YS02001926    1.00   0.00  0.13  0.00  0.87  0.00  0.00  0.00  0.83  0.00
  YS02006553YS02006556    1.00   0.01  0.00  0.00  0.99  0.00  0.00  0.00  0.03  0.00
  YS02006556YS02006558    1.00   0.00  0.00  0.00  1.00  0.00  0.00  0.00  0.00  0.00
  YS02006558YS02006561    1.00   0.18  0.00  0.00  0.07  0.75  0.00  0.00  0.18  0.00
  YS02006561YS02001783    1.00   0.18  0.00  0.00  0.75  0.08  0.00  0.00  0.72  0.00
  YS02163301YS02001633    1.00   0.00  0.15  0.00  0.85  0.00  0.00  0.00  0.00  0.00
  YS02163601YS02164001    1.00   0.00  0.08  0.00  0.92  0.00  0.00  0.00  0.00  0.00
  YS02164001YS02001641    1.00   0.01  0.07  0.00  0.92  0.00  0.00  0.00  0.05  0.00
  
  
  *************************
  Conduit Surcharge Summary
  *************************
  
  ----------------------------------------------------------------------------
                                                           Hours        Hours 
                         --------- Hours Full --------   Above Full   Capacity
  Conduit                Both Ends  Upstream  Dnstream   Normal Flow   Limited
  ----------------------------------------------------------------------------
  WS02003072WS02003073        0.01      0.01      0.01      3.04         0.01
  WS02004404WS02004405        0.01      0.01      0.01      2.70         0.01
  WS02006109WS02006110        0.01      0.01      1.82      0.01         0.01
  WS02006110WS02006113        0.01      0.01      1.80      0.01         0.01
  WS02006111WS02006112        0.01      0.01      1.87      0.01         0.01
  WS02006228WS02006109        1.77      1.82      1.77      2.13         1.77
  WS02006229WS02006228        1.76      1.78      1.76      1.97         1.76
  WS02006230WS02006229        1.88      1.90      1.88      3.18         1.88
  WS02006231WS02006230        0.01      0.01      0.01      2.95         0.01
  WS02006232WS02006231        0.01      0.01      1.83      0.01         0.01
  WS02006234WS02006232        1.73      1.73      1.83      0.01         0.01
  WS02006235WS02006234        0.01      0.01      1.78      2.76         0.01
  WS02006238WS02006235        1.79      1.79      1.84      0.01         0.01
  WS02006239WS02006238        1.80      1.83      1.80      2.04         1.80
  WS02006240WS02006239        1.78      1.79      1.78      2.08         1.78
  WS02006242WS02006240        1.79      1.79      1.89      2.21         0.01
  WS02006243WS02006242        1.81      1.81      1.86      0.01         0.01
  WS02006245WS02006243        1.80      1.81      1.80      2.18         1.80
  WS02006247WS02006245        1.80      1.83      1.80      2.43         1.80
  WS02006248WS02006247        1.80      1.80      1.82      0.01         0.01
  WS02006249WS02006248        1.80      1.80      1.81      2.39         0.01
  WS02006251WS02006249        1.81      1.82      1.81      2.29         1.81
  WS02006252WS02006251        2.34      2.34      2.35      2.35         0.01
  WS02006256WS02006235        2.89      2.90      3.95      0.11         0.01
  YS02001580YS02001583        0.52      0.52      0.57      0.01         0.01
  YS02001583YS02001586        0.53      0.53      0.73      0.01         0.01
  YS02001586YS02001590        0.74      0.74      0.83      0.01         0.01
  YS02001590YS02001593        0.85      0.85      0.86      0.81         0.01
  YS02001593YS02001596        0.85      0.85      1.04      0.01         0.01
  YS02001596YS02001600        1.12      1.12      1.40      0.01         0.01
  YS02001600YS02001601        2.14      2.14      6.28      0.01         0.01
  YS02001601YS02001602        6.22      6.22      6.30      1.03         0.01
  YS02001602YS02001605        6.19      6.19      6.22      2.17         0.22
  YS02001605YS02001607        6.15      6.19      6.15      1.33         1.19
  YS02001607YS02001610        1.07      1.07      1.23      0.01         0.01
  YS02001610YS02001613        1.09      1.09      1.23      0.01         0.01
  YS02001613YS02001616        1.00      1.00      1.09      0.01         0.01
  YS02001616YS02001619        0.98      0.98      1.00      0.01         0.01
  YS02001619YS02001622        0.98      0.98      1.00      0.61         0.55
  YS02001622YS02001625        1.00      1.00      5.99      0.01         0.01
  YS02001625YS02001629        0.96      0.96      5.99      0.01         0.01
  YS02001629YS02163301        5.99      5.99      5.99      0.08         0.07
  YS02001633YS02163601        6.00      6.00      6.01      0.12         0.12
  YS02001641YS02001644        5.95      5.97      5.95      1.36         1.08
  YS02001644YS02001647        5.88      5.88      5.95      0.02         0.01
  YS02001647YS02001649        5.88      5.88      5.88      0.01         0.01
  YS02001649YS02001757        5.88      5.88      5.88      0.10         0.04
  YS02001652YS02001649        5.86      5.86      5.88      0.01         0.01
  YS02001655YS02001652        0.88      0.88      5.86      0.01         0.01
  YS02001658YS02001655        0.19      0.19      0.88      0.01         0.01
  YS02001661YS02001658        0.01      0.01      0.19      0.01         0.01
  YS02001664YS02001661        0.01      0.01      0.03      0.01         0.01
  YS02001745YS02001748        0.01      0.01      0.12      0.01         0.01
  YS02001748YS02001751        0.17      0.17      0.78      0.01         0.01
  YS02001751YS02001754        0.78      0.78      5.85      0.01         0.01
  YS02001754YS02001757        5.85      5.85      5.88      0.01         0.01
  YS02001757CaochengTiaoxuchi        5.88      5.88      5.90      0.27         0.24
  YS02001759YS02001757        5.87      5.87      5.88      0.01         0.01
  YS02001762YS02001759        5.87      5.87      5.87      0.01         0.01
  YS02001765YS02001762        5.86      5.86      5.87      0.01         0.01
  YS02001767YS02001765        5.86      5.86      5.86      0.01         0.02
  YS02001770YS02001767        5.86      5.86      5.86      0.43         0.42
  YS02001774YS02001770        5.86      5.86      5.87      0.01         0.01
  YS02001779YS02001774        5.27      5.27      5.87      0.01         0.01
  YS02001783YS02001784        0.70      0.70      0.71      0.54         0.56
  YS02001784YS02001785        0.71      0.71      0.71      0.82         0.70
  YS02001786YS02001788        0.70      0.71      0.70      0.73         0.70
  YS02001788YS02001790        0.70      0.70      5.92      0.01         0.01
  YS02001790YS02001791        5.92      5.92      5.93      0.34         0.34
  YS02001791YS02001793        5.93      5.93      5.98      0.01         0.01
  YS02001793JiankangQianchi        5.96      5.96      6.28      0.01         0.01
  YS02001882YS02001884        0.44      0.44      0.46      0.01         0.01
  YS02001884YS02001887        0.48      0.48      0.49      0.01         0.01
  YS02001887YS02001890        0.50      0.50      0.51      0.06         0.01
  YS02001890YS02001895        0.43      0.43      0.53      0.01         0.01
  YS02001895YS02001898        0.43      0.43      0.43      0.01         0.01
  YS02001898YS02001901        0.44      0.44      0.47      0.01         0.01
  YS02001901YS02001904        0.47      0.47      0.47      0.01         0.01
  YS02001904YS02001907        0.47      0.47      0.72      0.01         0.01
  YS02001907YS02006553        0.85      0.85      0.92      0.01         0.01
  YS02001910YS02001907        0.52      0.52      0.70      0.01         0.01
  YS02001915YS02001910        0.44      0.44      0.52      0.01         0.01
  YS02001918YS02001915        0.35      0.35      0.44      0.01         0.01
  YS02001920YS02001918        0.35      0.35      0.37      0.01         0.01
  YS02001923YS02001920        0.30      0.30      0.37      0.01         0.01
  YS02001926YS02001923        0.02      0.02      0.03      0.01         0.01
  YS02001929YS02001926        0.01      0.01      0.03      0.01         0.01
  YS02006553YS02006556        0.62      0.62      0.72      0.01         0.01
  YS02006556YS02006558        0.66      0.66      0.74      0.01         0.01
  YS02006558YS02006561        0.48      0.60      0.48      0.80         0.48
  YS02006561YS02001783        0.40      0.40      0.70      0.01         0.01
  YS02163301YS02001633        5.99      5.99      6.01      0.01         0.01
  YS02163601YS02164001        5.97      5.97      6.01      0.09         0.01
  YS02164001YS02001641        5.97      5.97      5.97      0.55         0.44
  
  
  ***************
  Pumping Summary
  ***************
  
  ---------------------------------------------------------------------------------------------------------
                                                  Min       Avg       Max     Total     Power    % Time Off
                        Percent   Number of      Flow      Flow      Flow    Volume     Usage    Pump Curve
  Pump                 Utilized   Start-Ups       LPS       LPS       LPS  10^6 ltr     Kw-hr    Low   High
  ---------------------------------------------------------------------------------------------------------
  CC-R1                    1.06           1      0.00    683.00    683.00     0.208      3.51    0.0  100.0
  CC-R2                    1.06           1      0.00    683.00    683.00     0.208      3.51    0.0  100.0
  CC-S1                   29.97           6      0.00    200.00    200.00     1.726      7.89    0.0   53.1
  CC-S2                   30.34           6      0.00    200.00    200.00     1.747      7.94    0.0   53.7
  JK-R1                    0.97           2      0.00    347.46   1000.00     0.078      0.47    0.0    0.0
  JK-R2                    2.02           3      0.00    690.04   1000.00     0.379      3.99    0.0    0.0
  JK-S                     2.02           3      0.00    207.04    300.00     0.114      1.67    0.0    0.0
  XR-1                   100.00           1      0.00     95.00     95.00     2.736     68.18    0.0    0.0
  XR-2                   100.00           1      0.00     95.00     95.00     2.736     68.18    0.0    0.0
  XR-3                   100.00           1      0.00     95.00     95.00     2.736     68.18    0.0    0.0
  XR-4                   100.00           1      0.00     95.00     95.00     2.736     68.18    0.0    0.0
  

  Analysis begun on:  Wed Nov  5 16:30:28 2025
  Analysis ended on:  Wed Nov  5 16:30:30 2025
  Total elapsed time: 00:00:02