
  EPA STORM WATER MANAGEMENT MODEL - VERSION 5.2 (Build 5.2.4)
  PYSWMM TOOLKIT API - VERSION v1.0 (2023-11-27)
  ------------------------------------------------------------

  WARNING 04: minimum elevation drop used for Conduit WS02004404WS02004405
  WARNING 03: negative offset ignored for Link YS02001904YS02001907
  
  ****************
  Analysis Options
  ****************
  Flow Units ............... LPS
  Process Models:
    Rainfall/Runoff ........ YES
    RDII ................... NO
    Snowmelt ............... NO
    Groundwater ............ NO
    Flow Routing ........... YES
    Ponding Allowed ........ NO
    Water Quality .......... NO
  Infiltration Method ...... HORTON
  Flow Routing Method ...... DYNWAVE
  Surcharge Method ......... EXTRAN
  Starting Date ............ 08/28/2015 08:00:00
  Ending Date .............. 08/28/2015 16:00:00
  Antecedent Dry Days ...... 8.0
  Report Time Step ......... 00:01:00
  Wet Time Step ............ 00:01:00
  Dry Time Step ............ 00:01:00
  Routing Time Step ........ 30.00 sec
  Variable Time Step ....... YES
  Maximum Trials ........... 8
  Number of Threads ........ 4
  Head Tolerance ........... 0.001500 m
  
  
  **************************        Volume         Depth
  Runoff Quantity Continuity     hectare-m            mm
  **************************     ---------       -------
  Initial LID Storage ......         0.049         1.488
  Total Precipitation ......         1.995        60.137
  Evaporation Loss .........         0.000         0.000
  Infiltration Loss ........         0.078         2.363
  Surface Runoff ...........         1.470        44.328
  Final Storage ............         0.496        14.941
  Continuity Error (%) .....        -0.012
  
  
  **************************        Volume        Volume
  Flow Routing Continuity        hectare-m      10^6 ltr
  **************************     ---------     ---------
  Dry Weather Inflow .......         0.602         6.020
  Wet Weather Inflow .......         1.470        14.700
  Groundwater Inflow .......         0.000         0.000
  RDII Inflow ..............         0.000         0.000
  External Inflow ..........         0.105         1.045
  External Outflow .........         1.555        15.553
  Flooding Loss ............         0.554         5.536
  Evaporation Loss .........         0.000         0.000
  Exfiltration Loss ........         0.000         0.000
  Initial Stored Volume ....         0.303         3.031
  Final Stored Volume ......         0.827         8.274
  Continuity Error (%) .....       -18.420
  
  
  *************************
  Highest Continuity Errors
  *************************
  Node YS02001774 (38.75%)
  Node WS02006256 (-6.06%)
  Node YS02001884 (5.00%)
  Node YS02001754 (3.91%)
  Node YS02001751 (3.59%)
  
  
  ***************************
  Time-Step Critical Elements
  ***************************
  Link WS02001212WS02001213 (30.90%)
  Link WS02006235WS02006234 (20.08%)
  Link WS02006238WS02006235 (14.45%)
  Link YS02006556YS02006558 (8.77%)
  Link WS02004404WS02004405 (6.09%)
  
  
  ********************************
  Highest Flow Instability Indexes
  ********************************
  Link WS02006113WS02006111 (46)
  Link WS02006111WS02006112 (36)
  Link WS02006256WS02006235 (30)
  Link WS02006110WS02006113 (26)
  Link WS02006238WS02006235 (25)
  
  
  *********************************
  Most Frequent Nonconverging Nodes
  *********************************
  Node CC-1 (15.61%)
  Node CC-2 (15.61%)
  Node JK-1 (15.61%)
  Node JK-2 (15.61%)
  Node WSC (15.61%)
  
  
  *************************
  Routing Time Step Summary
  *************************
  Minimum Time Step           :     0.02 sec
  Average Time Step           :     3.65 sec
  Maximum Time Step           :     6.46 sec
  % of Time in Steady State   :     0.00
  Average Iterations per Step :     3.57
  % of Steps Not Converging   :    15.61
  Time Step Frequencies       :
     30.000 - 13.228 sec      :     0.00 %
     13.228 -  5.833 sec      :    29.89 %
      5.833 -  2.572 sec      :    40.46 %
      2.572 -  1.134 sec      :    22.33 %
      1.134 -  0.500 sec      :     7.31 %
  
  
  ***************************
  Subcatchment Runoff Summary
  ***************************
  
  ------------------------------------------------------------------------------------------------------------------------------
                            Total      Total      Total      Total     Imperv       Perv      Total       Total     Peak  Runoff
                           Precip      Runon       Evap      Infil     Runoff     Runoff     Runoff      Runoff   Runoff   Coeff
  Subcatchment                 mm         mm         mm         mm         mm         mm         mm    10^6 ltr      LPS
  ------------------------------------------------------------------------------------------------------------------------------
  sub60                     60.14       0.00       0.00       1.43      39.92       4.14      44.05        0.58   139.59   0.733
  sub61                     60.14       0.00       0.00       2.20      39.88       6.16      46.04        0.84   204.39   0.766
  sub62                     60.14       0.00       0.00       0.97      42.51       2.81      45.32        1.24   296.44   0.754
  sub63                     60.14       0.00       0.00       3.99      34.16      10.28      44.44        1.01   240.43   0.739
  sub64                     60.14       0.00       0.00       1.92      38.89       5.11      44.00        1.06   250.91   0.732
  sub65                     60.14       0.00       0.00       1.76      41.97       4.66      46.63        1.28   302.16   0.775
  sub66                     60.14       0.00       0.00       4.55      33.02       9.28      42.30        1.97   423.04   0.703
  sub67                     60.14       0.00       0.00       0.97      43.59       2.91      46.50        0.86   207.88   0.773
  sub68                     60.14       0.00       0.00       1.69      38.49       4.73      43.22        1.19   286.40   0.719
  sub69                     60.14       0.00       0.00       1.54      40.43       5.60      46.03        1.70   393.07   0.765
  sub70                     60.14       0.00       0.00       4.97      32.38      11.77      44.15        1.28   256.81   0.734
  sub71                     60.14       0.00       0.00       0.90      38.62       2.54      41.16        1.08   254.91   0.684
  sub72                     60.14       0.00       0.00       0.85      41.71       2.36      44.07        0.61   140.26   0.733
  

  ***********************
  LID Performance Summary
  ***********************

  --------------------------------------------------------------------------------------------------------------------
                                         Total      Evap     Infil   Surface    Drain    Initial     Final  Continuity
                                        Inflow      Loss      Loss   Outflow   Outflow   Storage   Storage       Error
  Subcatchment      LID Control             mm        mm        mm        mm        mm        mm        mm           %
  --------------------------------------------------------------------------------------------------------------------
  sub60             GreenRoof            60.14      0.00      0.00      0.00      0.00      7.05     67.19        0.00
  sub61             GreenRoof            60.14      0.00      0.00      0.00      0.00      7.05     67.19        0.00
  sub62             GreenRoof            60.14      0.00      0.00      0.00      0.00      7.05     67.19        0.00
  sub63             GreenRoof            60.14      0.00      0.00      0.00      0.00      7.05     67.19        0.00
  sub64             GreenRoof            60.14      0.00      0.00      0.00      0.00      7.05     67.19        0.00
  sub65             GreenRoof            60.14      0.00      0.00      0.00      0.00      7.05     67.19        0.00
  sub66             GreenRoof            60.14      0.00      0.00      0.00      0.00      7.05     67.19        0.00
  sub67             GreenRoof            60.14      0.00      0.00      0.00      0.00      7.05     67.19        0.00
  sub68             GreenRoof            60.14      0.00      0.00      0.00      0.00      7.05     67.19        0.00
  sub69             GreenRoof            60.14      0.00      0.00      0.00      0.00      7.05     67.19        0.00
  sub70             GreenRoof            60.14      0.00      0.00      0.00      0.00      7.05     67.19        0.00
  sub71             GreenRoof            60.14      0.00      0.00      0.00      0.00      7.05     67.19        0.00
  sub72             GreenRoof            60.14      0.00      0.00      0.00      0.00      7.05     67.19        0.00
  
  ******************
  Node Depth Summary
  ******************
  
  ---------------------------------------------------------------------------------
                                 Average  Maximum  Maximum  Time of Max    Reported
                                   Depth    Depth      HGL   Occurrence   Max Depth
  Node                 Type       Meters   Meters   Meters  days hr:min      Meters
  ---------------------------------------------------------------------------------
  WS02001211           JUNCTION     0.76     0.78     5.62     0  02:22        0.78
  WS02001212           JUNCTION     0.46     0.49     5.55     0  02:20        0.49
  WS02001213           JUNCTION     0.69     0.73     5.49     0  02:19        0.73
  WS02003059           JUNCTION     0.73     0.78     5.47     0  02:02        0.78
  WS02003060           JUNCTION     0.39     0.47     5.41     0  02:01        0.47
  WS02003066           JUNCTION     0.17     0.27     5.82     0  03:11        0.27
  WS02003067           JUNCTION     0.45     0.65     5.97     0  03:11        0.65
  WS02003069           JUNCTION     0.43     0.54     5.12     0  02:18        0.54
  WS02003072           JUNCTION     0.50     0.60     4.97     0  02:19        0.60
  WS02003073           JUNCTION     0.30     0.37     4.43     0  02:20        0.37
  WS02004138           JUNCTION     0.19     0.20     7.45     0  00:00        0.19
  WS02004139           JUNCTION     0.71     0.73     5.64     0  02:21        0.73
  WS02004401           JUNCTION     0.54     0.77     6.77     0  03:06        0.77
  WS02004402           JUNCTION     0.57     0.81     6.77     0  03:06        0.80
  WS02004403           JUNCTION     0.59     0.83     6.76     0  03:06        0.82
  WS02004404           JUNCTION     0.67     0.92     6.77     0  03:06        0.91
  WS02004405           JUNCTION     0.66     0.89     6.74     0  03:06        0.88
  WS02004406           JUNCTION     0.67     0.89     6.72     0  03:06        0.89
  WS02004407           JUNCTION     0.15     0.26     6.57     0  03:09        0.26
  WS02004409           JUNCTION     0.33     0.58     6.35     0  03:09        0.58
  WS02004410           JUNCTION     0.35     0.59     6.31     0  03:10        0.59
  WS02004411           JUNCTION     0.38     0.61     6.29     0  03:12        0.61
  WS02004412           JUNCTION     0.40     0.62     6.26     0  03:12        0.62
  WS02004413           JUNCTION     0.55     0.79     6.26     0  03:11        0.79
  WS02006109           JUNCTION     0.59     0.83     7.45     0  02:11        0.83
  WS02006110           JUNCTION     0.60     0.82     7.41     0  02:11        0.82
  WS02006111           JUNCTION     0.15     0.25     6.96     0  03:26        0.25
  WS02006112           JUNCTION     0.69     0.95     6.83     0  03:07        0.95
  WS02006113           JUNCTION     0.23     0.39     7.29     0  02:08        0.39
  WS02006115           JUNCTION     0.42     0.66     6.80     0  03:07        0.66
  WS02006116           JUNCTION     0.51     0.74     6.78     0  03:07        0.74
  WS02006228           JUNCTION     0.58     0.84     7.49     0  02:11        0.84
  WS02006229           JUNCTION     0.55     0.82     7.52     0  02:11        0.82
  WS02006230           JUNCTION     0.54     0.86     7.60     0  02:11        0.86
  WS02006231           JUNCTION     0.33     0.60     7.72     0  02:11        0.60
  WS02006232           JUNCTION     0.45     0.75     7.79     0  02:11        0.75
  WS02006234           JUNCTION     0.38     0.71     7.87     0  02:21        0.71
  WS02006235           JUNCTION     0.41     0.76     7.93     0  02:24        0.76
  WS02006238           JUNCTION     0.44     0.81     7.95     0  01:43        0.81
  WS02006239           JUNCTION     0.42     0.80     8.01     0  01:56        0.80
  WS02006240           JUNCTION     0.40     0.79     8.08     0  02:21        0.79
  WS02006242           JUNCTION     0.47     0.90     8.17     0  01:59        0.90
  WS02006243           JUNCTION     0.41     0.84     8.26     0  01:56        0.84
  WS02006245           JUNCTION     0.42     0.86     8.34     0  02:21        0.86
  WS02006247           JUNCTION     0.44     0.89     8.39     0  02:01        0.89
  WS02006248           JUNCTION     0.41     0.86     8.44     0  02:24        0.85
  WS02006249           JUNCTION     0.44     0.93     8.53     0  01:54        0.93
  WS02006251           JUNCTION     0.44     0.91     8.58     0  02:14        0.91
  WS02006252           JUNCTION     0.29     1.50     9.74     0  00:00        0.62
  WS02006256           JUNCTION     0.64     2.35     9.28     0  00:00        2.35
  WSF200               JUNCTION     0.14     0.25     5.48     0  03:12        0.25
  YS02001580           JUNCTION     0.14     0.97     9.51     0  01:23        0.62
  YS02001583           JUNCTION     0.17     0.96     9.46     0  01:23        0.67
  YS02001586           JUNCTION     0.29     1.13     9.30     0  01:23        1.00
  YS02001590           JUNCTION     0.42     1.38     9.24     0  01:23        1.26
  YS02001593           JUNCTION     0.38     1.31     9.17     0  01:23        1.20
  YS02001596           JUNCTION     0.70     1.67     9.09     0  01:23        1.59
  YS02001600           JUNCTION     0.94     1.87     9.00     0  01:23        1.83
  YS02001601           JUNCTION     1.19     2.06     8.90     0  01:22        2.06
  YS02001602           JUNCTION     1.09     1.87     8.77     0  01:36        1.87
  YS02001605           JUNCTION     1.03     1.78     8.68     0  01:42        1.78
  YS02001607           JUNCTION     0.99     1.68     8.53     0  01:42        1.68
  YS02001610           JUNCTION     1.03     1.68     8.48     0  01:42        1.68
  YS02001613           JUNCTION     0.99     1.70     8.54     0  01:42        1.70
  YS02001616           JUNCTION     0.92     1.61     8.52     0  01:42        1.61
  YS02001619           JUNCTION     0.90     1.61     8.54     0  01:42        1.61
  YS02001622           JUNCTION     0.91     1.62     8.52     0  01:42        1.62
  YS02001625           JUNCTION     1.16     1.78     8.38     0  01:48        1.78
  YS02001629           JUNCTION     1.19     1.85     8.40     0  02:00        1.85
  YS02001633           JUNCTION     1.26     1.96     8.42     0  02:11        1.96
  YS02001641           JUNCTION     1.23     1.92     8.36     0  02:11        1.92
  YS02001644           JUNCTION     1.22     1.90     8.33     0  02:11        1.90
  YS02001647           JUNCTION     1.02     1.67     8.28     0  02:11        1.67
  YS02001649           JUNCTION     1.18     1.82     8.21     0  02:11        1.82
  YS02001652           JUNCTION     1.00     1.60     8.20     0  02:11        1.60
  YS02001655           JUNCTION     0.78     1.45     8.30     0  01:50        1.32
  YS02001658           JUNCTION     0.55     1.16     8.30     0  01:57        1.00
  YS02001661           JUNCTION     0.36     0.74     8.14     0  02:12        0.73
  YS02001664           JUNCTION     0.07     0.19     8.12     0  02:12        0.19
  YS02001745           JUNCTION     0.25     0.60     8.11     0  02:06        0.58
  YS02001748           JUNCTION     0.58     1.04     8.11     0  02:08        1.02
  YS02001751           JUNCTION     0.74     1.22     8.10     0  02:11        1.21
  YS02001754           JUNCTION     0.96     1.52     8.12     0  02:11        1.50
  YS02001757           JUNCTION     1.27     1.89     8.15     0  02:11        1.89
  YS02001759           JUNCTION     1.18     1.82     8.19     0  02:11        1.81
  YS02001762           JUNCTION     1.15     1.81     8.21     0  02:11        1.81
  YS02001765           JUNCTION     1.11     1.78     8.23     0  02:11        1.78
  YS02001767           JUNCTION     1.08     1.77     8.26     0  02:11        1.77
  YS02001770           JUNCTION     1.07     1.80     8.29     0  02:11        1.79
  YS02001774           JUNCTION     1.14     1.88     8.30     0  02:11        1.88
  YS02001779           JUNCTION     0.90     1.62     8.31     0  02:11        1.62
  YS02001783           JUNCTION     0.54     1.71     7.85     0  01:24        1.20
  YS02001784           JUNCTION     0.59     1.59     7.66     0  01:24        1.19
  YS02001786           JUNCTION     0.59     1.77     7.80     0  01:24        1.07
  YS02001788           JUNCTION     0.60     1.99     7.96     0  01:24        0.99
  YS02001790           JUNCTION     0.85     1.96     7.60     0  01:24        1.20
  YS02001791           JUNCTION     0.96     1.85     7.32     0  01:23        1.25
  YS02001793           JUNCTION     1.47     3.60     8.43     0  01:23        3.60
  YS02001882           JUNCTION     0.34     1.11     7.83     0  01:39        1.11
  YS02001884           JUNCTION     0.42     1.21     7.83     0  01:39        1.20
  YS02001887           JUNCTION     0.50     1.29     7.83     0  01:37        1.29
  YS02001890           JUNCTION     0.53     1.32     7.83     0  01:38        1.32
  YS02001895           JUNCTION     0.31     1.07     7.82     0  01:38        1.07
  YS02001898           JUNCTION     0.31     1.08     7.82     0  01:38        1.08
  YS02001901           JUNCTION     0.43     1.21     7.82     0  01:38        1.20
  YS02001904           JUNCTION     0.41     1.19     7.82     0  01:38        1.18
  YS02001907           JUNCTION     0.72     1.53     7.82     0  01:38        1.52
  YS02001910           JUNCTION     0.52     1.32     7.83     0  01:38        1.32
  YS02001915           JUNCTION     0.33     1.11     7.83     0  01:39        1.11
  YS02001918           JUNCTION     0.15     0.77     7.83     0  01:38        0.76
  YS02001920           JUNCTION     0.23     0.83     7.84     0  01:38        0.83
  YS02001923           JUNCTION     0.10     0.58     7.84     0  01:38        0.58
  YS02001926           JUNCTION     0.14     0.40     7.85     0  01:39        0.40
  YS02001929           JUNCTION     0.07     0.17     7.87     0  01:34        0.17
  YS02006553           JUNCTION     0.72     1.52     7.81     0  01:38        1.52
  YS02006556           JUNCTION     0.69     1.48     7.79     0  01:38        1.47
  YS02006558           JUNCTION     0.74     1.52     7.78     0  01:39        1.52
  YS02006561           JUNCTION     0.19     0.76     7.42     0  01:39        0.76
  YS02163301           JUNCTION     1.21     1.89     8.41     0  02:11        1.89
  YS02163601           JUNCTION     1.29     2.00     8.39     0  02:11        2.00
  YS02164001           JUNCTION     1.22     1.92     8.38     0  02:11        1.92
  CC-1                 OUTFALL      0.00     0.00     0.00     0  00:00        0.00
  CC-2                 OUTFALL      0.00     0.00     0.00     0  00:00        0.00
  JK-1                 OUTFALL      0.00     0.00     0.00     0  00:00        0.00
  JK-2                 OUTFALL      0.00     0.00     0.00     0  00:00        0.00
  WSC                  OUTFALL      0.30     0.37     1.04     0  02:21        0.37
  CC-storage           STORAGE      1.86     2.30     7.80     0  02:10        2.30
  JK-storage           STORAGE      4.90     5.80     6.60     0  01:24        5.80
  XR-storage           STORAGE      0.29     5.00     3.00     0  00:00        4.91
  
  
  *******************
  Node Inflow Summary
  *******************
  
  -------------------------------------------------------------------------------------------------
                                  Maximum  Maximum                  Lateral       Total        Flow
                                  Lateral    Total  Time of Max      Inflow      Inflow     Balance
                                   Inflow   Inflow   Occurrence      Volume      Volume       Error
  Node                 Type           LPS      LPS  days hr:min    10^6 ltr    10^6 ltr     Percent
  -------------------------------------------------------------------------------------------------
  WS02001211           JUNCTION      7.35   389.11     0  03:41       0.212        11.1       0.348
  WS02001212           JUNCTION      0.00   390.83     0  03:42           0        11.1       0.207
  WS02001213           JUNCTION      0.00   392.59     0  03:41           0        11.1       0.238
  WS02003059           JUNCTION      0.00   395.60     0  03:41           0          11       0.328
  WS02003060           JUNCTION     16.53   816.79     0  03:13       0.476          15       0.144
  WS02003066           JUNCTION      0.00   412.76     0  03:11           0        3.56       0.033
  WS02003067           JUNCTION      0.00   412.74     0  03:11           0        3.56       0.112
  WS02003069           JUNCTION      0.32   817.03     0  02:18     0.00922          15       0.152
  WS02003072           JUNCTION      0.00   817.02     0  02:19           0          15       0.198
  WS02003073           JUNCTION      1.82   818.84     0  02:20      0.0524          15       0.212
  WS02004138           JUNCTION      0.00   380.00     0  00:00           0        10.9       0.059
  WS02004139           JUNCTION      0.32   395.52     0  00:00     0.00924        10.9       0.407
  WS02004401           JUNCTION      0.00   419.56     0  03:07           0        3.66       0.271
  WS02004402           JUNCTION      0.00   425.12     0  03:07           0        3.65       0.276
  WS02004403           JUNCTION      0.00   428.45     0  03:06           0        3.64       0.270
  WS02004404           JUNCTION      0.16   439.16     0  03:06     0.00467        3.63       0.215
  WS02004405           JUNCTION      0.04   488.37     0  03:06      0.0011        3.63       0.327
  WS02004406           JUNCTION      0.00   426.58     0  03:06           0        3.61       0.564
  WS02004407           JUNCTION      0.00   415.01     0  03:09           0        3.59       0.025
  WS02004409           JUNCTION      0.00   414.23     0  03:09           0        3.59       0.061
  WS02004410           JUNCTION      0.00   414.06     0  03:10           0        3.59       0.108
  WS02004411           JUNCTION      0.00   413.25     0  03:10           0        3.59       0.142
  WS02004412           JUNCTION      0.00   413.48     0  03:10           0        3.58       0.194
  WS02004413           JUNCTION      0.00   413.29     0  03:11           0        3.57       0.350
  WS02006109           JUNCTION      1.23   411.72     0  01:50      0.0354         3.7       0.195
  WS02006110           JUNCTION      0.00   411.72     0  01:50           0        3.69       0.168
  WS02006111           JUNCTION      0.00   423.94     0  02:07           0        3.69       0.023
  WS02006112           JUNCTION      0.00   414.29     0  03:26           0        3.69       0.472
  WS02006113           JUNCTION      0.00   411.96     0  01:45           0        3.69       0.038
  WS02006115           JUNCTION      0.00   418.57     0  03:08           0        3.67       0.170
  WS02006116           JUNCTION      0.00   419.73     0  03:07           0        3.66       0.147
  WS02006228           JUNCTION      0.00   410.48     0  01:50           0        3.67       0.091
  WS02006229           JUNCTION      0.00   410.48     0  01:59           0        3.67       0.117
  WS02006230           JUNCTION     10.28   410.58     0  02:21       0.296        3.68       0.164
  WS02006231           JUNCTION      0.00   400.35     0  02:21           0        3.38      -0.093
  WS02006232           JUNCTION      0.00   400.34     0  02:21           0        3.39       0.235
  WS02006234           JUNCTION      0.00   401.74     0  02:21           0        3.38      -0.160
  WS02006235           JUNCTION      0.00   401.55     0  01:59           0         3.4       0.207
  WS02006238           JUNCTION      0.00   401.17     0  02:22           0        3.38      -0.233
  WS02006239           JUNCTION      0.00   400.99     0  01:56           0        3.36      -0.163
  WS02006240           JUNCTION      0.00   401.12     0  01:57           0        3.36      -0.045
  WS02006242           JUNCTION      0.00   401.44     0  01:48           0        3.36      -0.003
  WS02006243           JUNCTION      0.00   401.01     0  01:57           0        3.35      -0.015
  WS02006245           JUNCTION      0.00   403.01     0  02:12           0        3.37       0.323
  WS02006247           JUNCTION      0.00   400.73     0  02:14           0        3.37       0.014
  WS02006248           JUNCTION      0.00   403.62     0  01:17           0        3.37       0.062
  WS02006249           JUNCTION      0.00   470.91     0  01:16           0        3.38       0.281
  WS02006251           JUNCTION      0.08   404.66     0  01:15     0.00222        3.38       0.002
  WS02006252           JUNCTION      0.00   400.00     0  00:00           0        3.37      -0.046
  WS02006256           JUNCTION      0.00   300.00     0  00:00           0      0.0242      -5.714
  WSF200               JUNCTION      0.00   412.74     0  03:11           0        3.56       0.016
  YS02001580           JUNCTION      0.00    58.09     0  01:23           0     0.00442       0.819
  YS02001583           JUNCTION      0.00    80.68     0  01:22           0      0.0163      -2.725
  YS02001586           JUNCTION    256.81   257.04     0  01:37        1.28        1.29       0.086
  YS02001590           JUNCTION      0.00   257.19     0  01:37           0        1.27       0.023
  YS02001593           JUNCTION      0.00   257.35     0  01:36           0        1.27      -0.007
  YS02001596           JUNCTION      0.00   257.27     0  01:36           0        1.27       0.268
  YS02001600           JUNCTION      0.00   257.14     0  01:36           0        1.27       0.625
  YS02001601           JUNCTION    393.07   646.93     0  01:33         1.7        2.97       0.285
  YS02001602           JUNCTION      0.00   502.45     0  01:23           0         2.6       0.350
  YS02001605           JUNCTION      0.00   502.21     0  01:23           0        2.51       0.547
  YS02001607           JUNCTION      0.00   502.12     0  01:23           0         2.5       0.853
  YS02001610           JUNCTION      0.00   501.99     0  01:23           0        2.48       0.933
  YS02001613           JUNCTION      0.00   501.31     0  01:23           0        2.47       0.978
  YS02001616           JUNCTION      0.00   501.82     0  01:22           0        2.45       0.885
  YS02001619           JUNCTION    423.04   886.94     0  01:33        1.97         4.4       0.476
  YS02001622           JUNCTION      0.00   887.04     0  01:33           0        4.37       0.670
  YS02001625           JUNCTION      0.00   886.94     0  01:33           0        4.34       1.063
  YS02001629           JUNCTION      0.00   886.93     0  01:33           0        4.28       0.527
  YS02001633           JUNCTION    302.36  1187.59     0  01:33        1.29        5.53       0.578
  YS02001641           JUNCTION      0.00  1187.72     0  01:33           0        5.46       0.383
  YS02001644           JUNCTION    250.95  1438.33     0  01:33        1.06        6.49       0.399
  YS02001647           JUNCTION      0.00  1438.99     0  01:33           0        6.46       0.433
  YS02001649           JUNCTION      0.00  1648.13     0  01:32           0         7.4       0.502
  YS02001652           JUNCTION      0.00   270.20     0  01:57           0        1.01       2.236
  YS02001655           JUNCTION      0.15   315.51     0  01:47     0.00443        1.03       2.352
  YS02001658           JUNCTION      0.00   554.23     0  01:56           0        1.04       0.888
  YS02001661           JUNCTION      0.00   396.47     0  01:56           0        1.03       0.750
  YS02001664           JUNCTION    240.43   240.43     0  01:33        1.01        1.01      -0.038
  YS02001745           JUNCTION    139.59   261.54     0  02:05       0.579       0.621       0.737
  YS02001748           JUNCTION      0.04   321.09     0  02:06      0.0013       0.635       2.123
  YS02001751           JUNCTION      0.01   189.56     0  01:54    0.000317       0.601       3.719
  YS02001754           JUNCTION      0.26   160.40     0  01:54     0.00749        0.59       4.065
  YS02001757           JUNCTION      0.00  2211.40     0  01:27           0        9.84       0.968
  YS02001759           JUNCTION    204.43   469.63     0  01:37       0.846        1.99       1.136
  YS02001762           JUNCTION      0.00   275.88     0  01:27           0        1.16       1.829
  YS02001765           JUNCTION      0.00   284.97     0  01:27           0        1.18       2.072
  YS02001767           JUNCTION      0.54   299.39     0  01:37      0.0154        1.21       3.004
  YS02001770           JUNCTION    296.60   297.69     0  01:27        1.25        1.27       2.441
  YS02001774           JUNCTION      0.00    67.72     0  01:35           0      0.0637      63.273
  YS02001779           JUNCTION      0.01    41.43     0  01:35    0.000144      0.0231     179.562
  YS02001783           JUNCTION      0.00   829.09     0  01:39           0        3.79       0.178
  YS02001784           JUNCTION      1.06   830.08     0  01:39      0.0305        3.81       0.284
  YS02001786           JUNCTION      0.06   829.90     0  01:39     0.00162         3.8       0.353
  YS02001788           JUNCTION      0.07   830.01     0  01:39     0.00204        3.79       0.363
  YS02001790           JUNCTION      0.15   830.25     0  01:39     0.00446        3.78       0.451
  YS02001791           JUNCTION      0.00   830.24     0  01:39           0        3.76       0.387
  YS02001793           JUNCTION      0.00   830.63     0  01:39           0        3.75       0.391
  YS02001882           JUNCTION      0.00    32.12     0  01:16           0      0.0156       5.008
  YS02001884           JUNCTION      0.00    68.35     0  01:13           0      0.0522       5.258
  YS02001887           JUNCTION    208.33   221.83     0  01:28       0.877       0.911       0.485
  YS02001890           JUNCTION      0.00   227.20     0  01:27           0        0.87       0.608
  YS02001895           JUNCTION      0.00   226.65     0  01:27           0       0.864       0.271
  YS02001898           JUNCTION      0.00   216.15     0  01:27           0       0.862      -0.029
  YS02001901           JUNCTION      0.00   213.80     0  01:27           0       0.867       0.412
  YS02001904           JUNCTION      0.00   207.13     0  01:27           0       0.876       0.350
  YS02001907           JUNCTION      0.00   595.75     0  01:42           0        2.64       0.690
  YS02001910           JUNCTION      0.00   412.95     0  01:43           0        1.76       0.408
  YS02001915           JUNCTION    254.93   417.13     0  01:43        1.08        1.77       0.095
  YS02001918           JUNCTION      0.00   172.14     0  01:43           0        0.69       0.045
  YS02001920           JUNCTION      2.87   162.97     0  01:42      0.0827       0.691       0.152
  YS02001923           JUNCTION      0.04   142.17     0  01:43     0.00109       0.608      -0.026
  YS02001926           JUNCTION      0.05   140.30     0  01:34      0.0015       0.608       0.073
  YS02001929           JUNCTION    140.26   140.26     0  01:34       0.606       0.606      -0.011
  YS02006553           JUNCTION      0.00   591.12     0  01:43           0        2.64       0.461
  YS02006556           JUNCTION      0.00   585.37     0  01:42           0        2.65       0.319
  YS02006558           JUNCTION    287.28   830.89     0  01:39        1.21        3.83       0.099
  YS02006561           JUNCTION      0.00   829.84     0  01:42           0        3.79      -0.008
  YS02163301           JUNCTION      0.00   885.58     0  01:33           0        4.27       0.561
  YS02163601           JUNCTION      0.11  1187.66     0  01:33     0.00317         5.5       0.546
  YS02164001           JUNCTION      0.00  1187.45     0  01:33           0        5.47       0.366
  CC-1                 OUTFALL       0.00   683.00     0  00:00           0       0.208       0.000
  CC-2                 OUTFALL       0.00   683.00     0  00:00           0       0.208       0.000
  JK-1                 OUTFALL       0.00  1000.00     0  00:00           0      0.0791       0.000
  JK-2                 OUTFALL       0.00  1000.00     0  00:00           0      0.0791       0.000
  WSC                  OUTFALL       0.00   818.83     0  02:21           0          15       0.000
  CC-storage           STORAGE       0.00  2181.49     0  01:27           0        11.9       0.367
  JK-storage           STORAGE       0.00   987.10     0  01:22           0        3.88       0.404
  XR-storage           STORAGE     200.00   200.00     0  00:00        5.76        6.36     -41.886
  
  
  **********************
  Node Surcharge Summary
  **********************
  
  Surcharging occurs when water rises above the top of the highest conduit.
  ---------------------------------------------------------------------
                                               Max. Height   Min. Depth
                                   Hours       Above Crown    Below Rim
  Node                 Type      Surcharged         Meters       Meters
  ---------------------------------------------------------------------
  WS02006109           JUNCTION        1.96          0.015        1.805
  WS02006228           JUNCTION        1.96          0.014        2.186
  WS02006229           JUNCTION        1.98          0.025        2.425
  WS02006232           JUNCTION        2.03          0.050        1.430
  WS02006235           JUNCTION        1.98          0.053        1.237
  WS02006238           JUNCTION        2.00          0.090        1.340
  WS02006239           JUNCTION        1.98          0.063        1.227
  WS02006240           JUNCTION        1.98          0.077        1.313
  WS02006242           JUNCTION        2.06          0.174        0.646
  WS02006243           JUNCTION        2.00          0.133        0.637
  WS02006245           JUNCTION        2.00          0.146        0.704
  WS02006247           JUNCTION        2.01          0.180        0.580
  WS02006248           JUNCTION        1.99          0.136        0.244
  WS02006249           JUNCTION        2.01          0.231        0.159
  WS02006252           JUNCTION        2.34          1.100        0.000
  WS02006256           JUNCTION        3.34          2.050        0.000
  YS02001580           JUNCTION        0.21          0.369        0.081
  YS02001583           JUNCTION        0.24          0.323        0.177
  YS02001586           JUNCTION        0.96          0.510        0.000
  YS02001590           JUNCTION        1.20          0.732        0.018
  YS02001593           JUNCTION        1.21          0.687        0.153
  YS02001596           JUNCTION        1.56          0.942        0.128
  YS02001600           JUNCTION        2.04          1.190        0.000
  YS02001601           JUNCTION        6.84          1.440        0.000
  YS02001602           JUNCTION        6.82          1.270        0.000
  YS02001605           JUNCTION        6.80          1.180        0.000
  YS02001607           JUNCTION        1.72          0.680        0.000
  YS02001610           JUNCTION        3.97          0.680        0.000
  YS02001613           JUNCTION        1.74          0.700        0.000
  YS02001616           JUNCTION        1.66          0.610        0.000
  YS02001619           JUNCTION        1.64          0.610        0.000
  YS02001622           JUNCTION        1.66          0.620        0.000
  YS02001625           JUNCTION        6.69          0.780        0.000
  YS02001629           JUNCTION        1.49          0.470        0.000
  YS02001633           JUNCTION        6.70          0.941        0.119
  YS02001641           JUNCTION        6.66          0.923        0.177
  YS02001644           JUNCTION        6.64          0.899        0.021
  YS02001647           JUNCTION        6.40          0.671        0.229
  YS02001649           JUNCTION        6.43          0.823        0.227
  YS02001652           JUNCTION        6.36          0.571        0.559
  YS02001655           JUNCTION        1.18          0.453        0.747
  YS02001658           JUNCTION        0.02          0.160        1.140
  YS02001751           JUNCTION        0.77          0.224        0.976
  YS02001754           JUNCTION        6.24          0.466        0.684
  YS02001757           JUNCTION        6.44          0.886        0.324
  YS02001759           JUNCTION        6.40          0.822        0.388
  YS02001762           JUNCTION        6.40          0.811        0.339
  YS02001765           JUNCTION        6.39          0.779        0.321
  YS02001767           JUNCTION        6.38          0.769        0.261
  YS02001770           JUNCTION        6.36          0.770        0.150
  YS02001774           JUNCTION        6.40          0.878        0.172
  YS02001779           JUNCTION        6.22          0.619        0.061
  YS02001783           JUNCTION        0.66          0.914        0.686
  YS02001784           JUNCTION        0.67          0.789        0.701
  YS02001786           JUNCTION        0.66          0.971        0.459
  YS02001788           JUNCTION        0.66          1.187        0.293
  YS02001790           JUNCTION        6.60          1.157        0.000
  YS02001791           JUNCTION        6.61          1.051        0.869
  YS02001793           JUNCTION        6.62          2.600        0.000
  YS02001882           JUNCTION        0.19          0.111        0.719
  YS02001884           JUNCTION        0.24          0.151        0.719
  YS02001887           JUNCTION        0.35          0.238        0.712
  YS02001890           JUNCTION        0.40          0.271        0.489
  YS02001895           JUNCTION        0.16          0.075        0.675
  YS02001898           JUNCTION        0.12          0.055        0.685
  YS02001901           JUNCTION        0.32          0.212        0.658
  YS02001904           JUNCTION        0.29          0.188        0.662
  YS02001907           JUNCTION        0.79          0.516        0.434
  YS02001910           JUNCTION        0.47          0.320        0.780
  YS02001915           JUNCTION        0.19          0.114        0.886
  YS02006553           JUNCTION        0.81          0.524        0.666
  YS02006556           JUNCTION        0.67          0.439        0.911
  YS02006558           JUNCTION        0.64          0.416        0.984
  YS02163301           JUNCTION        6.69          0.893        0.137
  YS02163601           JUNCTION        6.70          0.996        0.084
  YS02164001           JUNCTION        6.66          0.921        0.179
  
  
  *********************
  Node Flooding Summary
  *********************
  
  Flooding refers to all water that overflows a node, whether it ponds or not.
  --------------------------------------------------------------------------
                                                             Total   Maximum
                                 Maximum   Time of Max       Flood    Ponded
                        Hours       Rate    Occurrence      Volume     Depth
  Node                 Flooded       LPS   days hr:min    10^6 ltr    Meters
  --------------------------------------------------------------------------
  WS02006252              0.01    245.63      0  00:00       0.000     0.000
  WS02006256              0.02    293.19      0  00:00       0.005     0.000
  YS02001586              0.01     15.27      0  01:23       0.000     0.000
  YS02001600              0.01      0.55      0  01:23       0.000     0.000
  YS02001601              0.78    230.19      0  01:38       0.363     0.000
  YS02001602              0.60     54.42      0  01:58       0.071     0.000
  YS02001605              0.01      0.18      0  01:42       0.000     0.000
  YS02001607              0.01      0.66      0  01:42       0.000     0.000
  YS02001610              0.04     15.05      0  01:57       0.001     0.000
  YS02001613              0.01      0.98      0  01:42       0.000     0.000
  YS02001616              0.01      1.15      0  02:00       0.000     0.000
  YS02001619              0.01      1.23      0  01:42       0.000     0.000
  YS02001622              0.01      0.24      0  01:42       0.000     0.000
  YS02001625              0.22     47.37      0  02:11       0.010     0.000
  YS02001629              0.01      1.54      0  02:11       0.000     0.000
  YS02001790              0.01    162.85      0  01:24       0.000     0.000
  YS02001793              0.01    317.01      0  01:23       0.000     0.000
  CC-storage              2.06    958.56      0  02:11       1.690     0.000
  JK-storage              6.60    830.40      0  01:39       3.394     0.000
  
  
  **********************
  Storage Volume Summary
  **********************
  
  ------------------------------------------------------------------------------------------------
                         Average    Avg   Evap  Exfil     Maximum    Max    Time of Max    Maximum
                          Volume   Pcnt   Pcnt   Pcnt      Volume   Pcnt     Occurrence    Outflow
  Storage Unit           1000 m³   Full   Loss   Loss     1000 m³   Full    days hr:min        LPS
  ------------------------------------------------------------------------------------------------
  CC-storage               5.178   80.8    0.0    0.0       6.410  100.0       0  02:10    1783.53
  JK-storage               0.246   84.5    0.0    0.0       0.291  100.0       0  01:24    2300.00
  XR-storage               0.035    2.4    0.0    0.0       0.600   41.7       0  00:00     380.00
  
  
  ***********************
  Outfall Loading Summary
  ***********************
  
  -----------------------------------------------------------
                         Flow       Avg       Max       Total
                         Freq      Flow      Flow      Volume
  Outfall Node           Pcnt       LPS       LPS    10^6 ltr
  -----------------------------------------------------------
  CC-1                   1.29    683.00    683.00       0.208
  CC-2                   1.29    683.00    683.00       0.208
  JK-1                   1.20    347.46   1000.00       0.079
  JK-2                   1.20    347.46   1000.00       0.079
  WSC                   99.92    578.27    818.83      14.978
  -----------------------------------------------------------
  System                20.98   2639.19   3366.35      15.553
  
  
  ********************
  Link Flow Summary
  ********************
  
  -----------------------------------------------------------------------------
                                 Maximum  Time of Max   Maximum    Max/    Max/
                                  |Flow|   Occurrence   |Veloc|    Full    Full
  Link                 Type          LPS  days hr:min     m/sec    Flow   Depth
  -----------------------------------------------------------------------------
  1                    CONDUIT    818.83     0  02:21      3.15    0.29    0.37
  WS02001211WS02001212 CONDUIT    390.83     0  03:42      0.78    0.30    0.64
  WS02001212WS02001213 CONDUIT    392.59     0  03:41      1.32    0.61    0.45
  WS02001213WS02003059 CONDUIT    395.60     0  03:41      0.85    0.65    0.75
  WS02003059WS02003060 CONDUIT    399.90     0  03:40      0.95    0.26    0.63
  WS02003060WS02003069 CONDUIT    816.71     0  02:18      1.80    0.32    0.42
  WS02003066WSF200     CONDUIT    412.74     0  03:11      2.69    0.07    0.19
  WS02003067WS02003066 CONDUIT    412.76     0  03:11      1.04    0.13    0.38
  WS02003069WS02003072 CONDUIT    817.02     0  02:19      1.55    0.39    0.47
  WS02003072WS02003073 CONDUIT    817.02     0  02:20      1.64    1.76    0.45
  WS02004138WS02004139 CONDUIT    395.20     0  00:00      3.65    0.08    0.43
  WS02004139WS02001211 CONDUIT    381.76     0  03:41      0.91    0.48    0.59
  WS02004401WS02004402 CONDUIT    425.12     0  03:07      0.99    0.51    0.79
  WS02004402WS02004403 CONDUIT    428.45     0  03:06      0.99    0.62    0.81
  WS02004403WS02004404 CONDUIT    439.00     0  03:06      0.93    0.32    0.87
  WS02004404WS02004405 CONDUIT    488.33     0  03:06      1.10    4.78    0.89
  WS02004405WS02004406 CONDUIT    426.58     0  03:06      1.03    0.84    0.88
  WS02004406WS02004407 CONDUIT    415.01     0  03:09      0.89    0.19    0.57
  WS02004407WS02004409 CONDUIT    414.23     0  03:09      1.38    0.15    0.42
  WS02004409WS02004410 CONDUIT    414.06     0  03:10      0.88    0.54    0.58
  WS02004410WS02004411 CONDUIT    413.25     0  03:10      0.84    0.56    0.60
  WS02004411WS02004412 CONDUIT    413.48     0  03:10      0.82    0.59    0.62
  WS02004412WS02004413 CONDUIT    413.29     0  03:11      0.70    0.28    0.70
  WS02004413WS02003067 CONDUIT    412.74     0  03:11      0.96    0.18    0.54
  WS02006109WS02006110 CONDUIT    411.72     0  01:50      0.84    0.79    0.94
  WS02006110WS02006113 CONDUIT    411.96     0  01:45      1.03    0.37    0.75
  WS02006111WS02006112 CONDUIT    414.29     0  03:26      1.83    0.20    0.65
  WS02006112WS02006115 CONDUIT    418.57     0  03:08      0.66    0.25    0.80
  WS02006113WS02006111 CONDUIT    423.94     0  02:07      2.25    0.51    0.40
  WS02006115WS02006116 CONDUIT    419.73     0  03:07      0.98    0.54    0.67
  WS02006116WS02004401 CONDUIT    419.56     0  03:07      1.00    0.58    0.76
  WS02006228WS02006109 CONDUIT    410.49     0  01:50      1.06    1.79    1.00
  WS02006229WS02006228 CONDUIT    410.48     0  01:50      1.13    1.36    1.00
  WS02006230WS02006229 CONDUIT    410.48     0  01:59      1.22    9.13    1.00
  WS02006231WS02006230 CONDUIT    400.30     0  02:21      1.36    6.07    0.77
  WS02006232WS02006231 CONDUIT    400.35     0  02:21      1.08    0.84    0.92
  WS02006234WS02006232 CONDUIT    400.34     0  02:21      1.40    0.81    1.00
  WS02006235WS02006234 CONDUIT    401.74     0  02:21      1.29    4.24    0.99
  WS02006238WS02006235 CONDUIT    401.55     0  01:59      1.47    0.90    1.00
  WS02006239WS02006238 CONDUIT    401.17     0  02:22      1.21    1.28    1.00
  WS02006240WS02006239 CONDUIT    400.99     0  01:56      1.30    1.26    1.00
  WS02006242WS02006240 CONDUIT    401.12     0  01:57      1.17    1.59    1.00
  WS02006243WS02006242 CONDUIT    401.44     0  01:48      1.41    0.86    1.00
  WS02006245WS02006243 CONDUIT    401.01     0  01:57      1.45    1.19    1.00
  WS02006247WS02006245 CONDUIT    403.01     0  02:12      1.43    3.20    1.00
  WS02006248WS02006247 CONDUIT    400.73     0  02:14      1.45    0.87    1.00
  WS02006249WS02006248 CONDUIT    403.62     0  01:17      1.39    2.21    1.00
  WS02006251WS02006249 CONDUIT    470.91     0  01:16      1.99    1.36    1.00
  WS02006252WS02006251 CONDUIT    404.58     0  01:15     24.55    1.49    1.00
  WS02006256WS02006235 CONDUIT    288.91     0  00:00      4.23    3.06    1.00
  WSF200WS02003060     CONDUIT    412.76     0  03:12      1.43    0.09    0.30
  YS02001580YS02001583 CONDUIT     58.09     0  01:23      0.46    0.23    1.00
  YS02001583YS02001586 CONDUIT     76.63     0  01:22      0.32    0.12    1.00
  YS02001586YS02001590 CONDUIT    257.19     0  01:37      1.25    0.45    1.00
  YS02001590YS02001593 CONDUIT    257.35     0  01:36      0.98    1.62    1.00
  YS02001593YS02001596 CONDUIT    257.27     0  01:36      1.64    0.41    1.00
  YS02001596YS02001600 CONDUIT    257.14     0  01:36      1.05    0.50    1.00
  YS02001600YS02001601 CONDUIT    257.17     0  01:36      0.91    0.44    1.00
  YS02001601YS02001602 CONDUIT    502.45     0  01:23      1.78    1.81    1.00
  YS02001602YS02001605 CONDUIT    502.21     0  01:23      1.78   10.63    1.00
  YS02001605YS02001607 CONDUIT    502.12     0  01:23      1.78    2.75    1.00
  YS02001607YS02001610 CONDUIT    501.99     0  01:23      0.71    0.48    1.00
  YS02001610YS02001613 CONDUIT    501.31     0  01:23      0.64    0.58    1.00
  YS02001613YS02001616 CONDUIT    501.82     0  01:22      0.68    0.43    1.00
  YS02001616YS02001619 CONDUIT    508.32     0  01:22      0.73    0.88    1.00
  YS02001619YS02001622 CONDUIT    887.04     0  01:33      1.54    1.31    1.00
  YS02001622YS02001625 CONDUIT    886.94     0  01:33      1.13    0.47    1.00
  YS02001625YS02001629 CONDUIT    886.93     0  01:33      1.13    0.42    1.00
  YS02001629YS02163301 CONDUIT    885.58     0  01:33      1.13    1.09    1.00
  YS02001633YS02163601 CONDUIT   1187.55     0  01:33      1.51    1.25    1.00
  YS02001641YS02001644 CONDUIT   1187.52     0  01:33      1.51    3.84    1.00
  YS02001644YS02001647 CONDUIT   1438.99     0  01:33      1.97    0.85    1.00
  YS02001647YS02001649 CONDUIT   1434.21     0  01:35      2.25    0.76    1.00
  YS02001649YS02001757 CONDUIT   1637.42     0  01:31      2.40    0.99    1.00
  YS02001652YS02001649 CONDUIT    271.56     0  01:57      1.16    0.13    1.00
  YS02001655YS02001652 CONDUIT    270.20     0  01:57      1.58    0.13    1.00
  YS02001658YS02001655 CONDUIT    315.36     0  01:47      1.78    0.13    1.00
  YS02001661YS02001658 CONDUIT    554.23     0  01:56      1.98    0.22    0.81
  YS02001664YS02001661 CONDUIT    240.41     0  01:33      1.74    0.08    0.45
  YS02001745YS02001748 CONDUIT    321.04     0  02:06      1.76    0.12    0.73
  YS02001748YS02001751 CONDUIT    189.55     0  01:54      1.47    0.10    1.00
  YS02001751YS02001754 CONDUIT    160.14     0  01:54      1.45    0.08    1.00
  YS02001754YS02001757 CONDUIT    158.46     0  01:54      0.89    0.06    1.00
  YS02001757CaochengTiaoxuchi CONDUIT   2181.49     0  01:27      2.94    0.94    1.00
  YS02001759YS02001757 CONDUIT    471.96     0  01:37      1.22    0.34    1.00
  YS02001762YS02001759 CONDUIT    276.58     0  01:37      0.71    0.32    1.00
  YS02001765YS02001762 CONDUIT    275.88     0  01:27      0.83    0.26    1.00
  YS02001767YS02001765 CONDUIT    284.97     0  01:27      0.90    0.36    1.00
  YS02001770YS02001767 CONDUIT    298.85     0  01:37      0.83    1.18    1.00
  YS02001774YS02001770 CONDUIT     67.72     0  01:35      0.61    0.04    1.00
  YS02001779YS02001774 CONDUIT     41.42     0  01:35      0.17    0.02    1.00
  YS02001783YS02001784 CONDUIT    829.02     0  01:39      1.65    1.14    1.00
  YS02001784YS02001785 CONDUIT    829.84     0  01:39      1.78    1.93    1.00
  YS02001786YS02001788 CONDUIT    829.94     0  01:39      2.22    1.60    1.00
  YS02001788YS02001790 CONDUIT    830.10     0  01:39      2.31    0.61    1.00
  YS02001790YS02001791 CONDUIT    830.24     0  01:39      2.86    0.90    1.00
  YS02001791YS02001793 CONDUIT    830.63     0  01:39      5.72    0.36    1.00
  YS02001793JiankangQianchi CONDUIT    987.10     0  01:22      2.80    0.08    1.00
  YS02001882YS02001884 CONDUIT     32.12     0  01:16      0.32    0.04    1.00
  YS02001884YS02001887 CONDUIT     68.35     0  01:13      0.26    0.09    1.00
  YS02001887YS02001890 CONDUIT    227.20     0  01:27      0.31    0.39    1.00
  YS02001890YS02001895 CONDUIT    226.65     0  01:27      0.33    0.11    1.00
  YS02001895YS02001898 CONDUIT    216.15     0  01:27      0.60    0.38    1.00
  YS02001898YS02001901 CONDUIT    213.80     0  01:27      0.51    0.14    1.00
  YS02001901YS02001904 CONDUIT    207.13     0  01:27      0.53    0.32    1.00
  YS02001904YS02001907 CONDUIT    205.50     0  02:01      0.30    0.07    1.00
  YS02001907YS02006553 CONDUIT    591.12     0  01:43      0.66    0.70    1.00
  YS02001910YS02001907 CONDUIT    412.73     0  01:43      0.53    0.23    1.00
  YS02001915YS02001910 CONDUIT    412.95     0  01:43      1.00    0.21    1.00
  YS02001918YS02001915 CONDUIT    196.82     0  01:43      0.44    0.11    0.88
  YS02001920YS02001918 CONDUIT    172.14     0  01:43      0.69    0.17    0.80
  YS02001923YS02001920 CONDUIT    160.10     0  01:42      0.75    0.07    0.70
  YS02001926YS02001923 CONDUIT    142.14     0  01:43      0.87    0.20    0.38
  YS02001929YS02001926 CONDUIT    140.25     0  01:34      0.96    0.07    0.29
  YS02006553YS02006556 CONDUIT    585.37     0  01:42      0.75    0.50    1.00
  YS02006556YS02006558 CONDUIT    582.81     0  01:42      0.74    0.46    1.00
  YS02006558YS02006561 CONDUIT    829.84     0  01:42      3.14    1.83    1.00
  YS02006561YS02001783 CONDUIT    829.09     0  01:39      2.14    0.43    0.97
  YS02163301YS02001633 CONDUIT    885.34     0  01:33      1.13    0.83    1.00
  YS02163601YS02164001 CONDUIT   1187.45     0  01:33      1.51    1.05    1.00
  YS02164001YS02001641 CONDUIT   1187.72     0  01:33      1.51    1.62    1.00
  CC-R1                PUMP       683.00     0  00:00              1.00
  CC-R2                PUMP       683.00     0  00:00              1.00
  CC-S1                PUMP       200.00     0  00:00              1.00
  CC-S2                PUMP       200.00     0  00:00              1.00
  JK-R1                PUMP      1000.00     0  00:00              1.00
  JK-R2                PUMP      1000.00     0  00:00              1.00
  JK-S                 PUMP       300.00     0  00:00              1.00
  XR-1                 PUMP        95.00     0  00:00              1.00
  XR-2                 PUMP        95.00     0  00:00              1.00
  XR-3                 PUMP        95.00     0  00:00              1.00
  XR-4                 PUMP        95.00     0  00:00              1.00
  
  
  ***************************
  Flow Classification Summary
  ***************************
  
  -------------------------------------------------------------------------------------
                      Adjusted    ---------- Fraction of Time in Flow Class ---------- 
                       /Actual         Up    Down  Sub   Sup   Up    Down  Norm  Inlet 
  Conduit               Length    Dry  Dry   Dry   Crit  Crit  Crit  Crit  Ltd   Ctrl  
  -------------------------------------------------------------------------------------
  1                       1.00   0.00  0.00  0.00  0.00  1.00  0.00  0.00  0.17  0.00
  WS02001211WS02001212    1.00   0.00  0.00  0.00  1.00  0.00  0.00  0.00  0.00  0.00
  WS02001212WS02001213    1.00   0.00  0.00  0.00  0.40  0.00  0.60  0.00  0.00  0.00
  WS02001213WS02003059    1.00   0.00  0.00  0.00  0.99  0.00  0.00  0.00  0.00  0.00
  WS02003059WS02003060    1.00   0.00  0.00  0.00  1.00  0.00  0.00  0.00  0.00  0.00
  WS02003060WS02003069    1.00   0.00  0.00  0.00  0.99  0.01  0.00  0.00  0.00  0.00
  WS02003066WSF200        1.00   0.02  0.10  0.00  0.00  0.88  0.00  0.00  0.86  0.00
  WS02003067WS02003066    1.00   0.10  0.02  0.00  0.89  0.00  0.00  0.00  0.00  0.00
  WS02003069WS02003072    1.00   0.00  0.00  0.00  0.99  0.01  0.00  0.00  0.00  0.00
  WS02003072WS02003073    1.00   0.00  0.00  0.00  0.00  0.00  0.00  1.00  0.00  0.00
  WS02004138WS02004139    1.00   0.00  0.00  0.00  0.99  0.01  0.00  0.00  1.00  0.00
  WS02004139WS02001211    1.00   0.00  0.00  0.00  1.00  0.00  0.00  0.00  0.00  0.00
  WS02004401WS02004402    1.00   0.02  0.00  0.00  0.98  0.00  0.00  0.00  0.00  0.00
  WS02004402WS02004403    1.00   0.02  0.00  0.00  0.98  0.00  0.00  0.00  0.00  0.00
  WS02004403WS02004404    1.00   0.00  0.03  0.00  0.97  0.00  0.00  0.00  0.00  0.00
  WS02004404WS02004405    1.00   0.00  0.00  0.00  1.00  0.00  0.00  0.00  0.01  0.00
  WS02004405WS02004406    1.00   0.00  0.00  0.00  1.00  0.00  0.00  0.00  0.00  0.00
  WS02004406WS02004407    1.00   0.00  0.05  0.00  0.95  0.00  0.00  0.00  0.00  0.00
  WS02004407WS02004409    1.00   0.05  0.00  0.00  0.94  0.01  0.00  0.00  0.95  0.00
  WS02004409WS02004410    1.00   0.05  0.00  0.00  0.95  0.00  0.00  0.00  0.02  0.00
  WS02004410WS02004411    1.00   0.05  0.00  0.00  0.95  0.00  0.00  0.00  0.00  0.00
  WS02004411WS02004412    1.00   0.05  0.00  0.00  0.95  0.00  0.00  0.00  0.00  0.00
  WS02004412WS02004413    1.00   0.05  0.00  0.00  0.94  0.00  0.00  0.00  0.01  0.00
  WS02004413WS02003067    1.00   0.06  0.04  0.00  0.00  0.00  0.90  0.00  0.00  0.00
  WS02006109WS02006110    1.00   0.00  0.01  0.00  0.98  0.00  0.01  0.00  0.00  0.00
  WS02006110WS02006113    1.00   0.01  0.01  0.00  0.98  0.00  0.00  0.00  0.00  0.00
  WS02006111WS02006112    1.00   0.02  0.00  0.00  0.98  0.00  0.00  0.00  0.98  0.00
  WS02006112WS02006115    1.00   0.02  0.00  0.00  0.97  0.00  0.00  0.00  0.00  0.00
  WS02006113WS02006111    1.00   0.02  0.00  0.00  0.00  0.98  0.00  0.00  0.12  0.00
  WS02006115WS02006116    1.00   0.02  0.00  0.00  0.97  0.00  0.00  0.01  0.00  0.00
  WS02006116WS02004401    1.00   0.02  0.00  0.00  0.98  0.00  0.00  0.00  0.00  0.00
  WS02006228WS02006109    1.00   0.00  0.00  0.00  1.00  0.00  0.00  0.00  0.00  0.00
  WS02006229WS02006228    1.00   0.00  0.00  0.00  0.99  0.00  0.00  0.01  0.00  0.00
  WS02006230WS02006229    1.00   0.00  0.00  0.00  0.99  0.00  0.00  0.01  0.00  0.00
  WS02006231WS02006230    1.00   0.00  0.00  0.00  0.26  0.00  0.74  0.00  0.00  0.00
  WS02006232WS02006231    1.00   0.00  0.00  0.00  0.99  0.00  0.01  0.00  0.00  0.00
  WS02006234WS02006232    1.00   0.00  0.00  0.00  1.00  0.00  0.00  0.00  0.49  0.00
  WS02006235WS02006234    1.00   0.00  0.00  0.00  0.47  0.00  0.53  0.00  0.00  0.00
  WS02006238WS02006235    1.00   0.00  0.00  0.00  1.00  0.00  0.00  0.00  0.00  0.00
  WS02006239WS02006238    1.00   0.00  0.00  0.00  1.00  0.00  0.00  0.00  0.58  0.00
  WS02006240WS02006239    1.00   0.00  0.00  0.00  0.38  0.00  0.00  0.62  0.01  0.00
  WS02006242WS02006240    1.00   0.00  0.00  0.00  0.99  0.00  0.00  0.00  0.00  0.00
  WS02006243WS02006242    1.00   0.00  0.00  0.00  0.99  0.00  0.00  0.01  0.67  0.00
  WS02006245WS02006243    1.00   0.00  0.00  0.00  0.43  0.00  0.00  0.56  0.00  0.00
  WS02006247WS02006245    1.00   0.00  0.00  0.00  0.99  0.00  0.00  0.01  0.00  0.00
  WS02006248WS02006247    1.00   0.00  0.00  0.00  0.99  0.00  0.00  0.01  0.13  0.00
  WS02006249WS02006248    1.00   0.00  0.00  0.00  0.33  0.00  0.67  0.00  0.00  0.00
  WS02006251WS02006249    1.00   0.00  0.00  0.00  1.00  0.00  0.00  0.00  0.68  0.00
  WS02006252WS02006251    1.00   0.00  0.71  0.00  0.00  0.00  0.29  0.00  0.00  0.00
  WS02006256WS02006235    1.00   0.00  0.00  0.00  1.00  0.00  0.00  0.00  0.00  0.00
  WSF200WS02003060        1.00   0.00  0.02  0.00  0.98  0.00  0.00  0.00  0.64  0.00
  YS02001580YS02001583    1.00   0.17  0.60  0.00  0.24  0.00  0.00  0.00  0.69  0.00
  YS02001583YS02001586    1.00   0.48  0.23  0.00  0.29  0.00  0.00  0.00  0.69  0.00
  YS02001586YS02001590    1.00   0.13  0.00  0.00  0.41  0.03  0.00  0.43  0.28  0.00
  YS02001590YS02001593    1.00   0.13  0.00  0.00  0.22  0.00  0.65  0.00  0.00  0.00
  YS02001593YS02001596    1.00   0.13  0.00  0.00  0.85  0.00  0.00  0.02  0.62  0.00
  YS02001596YS02001600    1.00   0.13  0.00  0.00  0.86  0.00  0.00  0.01  0.01  0.00
  YS02001600YS02001601    1.00   0.13  0.00  0.00  0.87  0.00  0.00  0.00  0.00  0.00
  YS02001601YS02001602    1.00   0.13  0.00  0.00  0.87  0.00  0.00  0.00  0.00  0.00
  YS02001602YS02001605    1.00   0.13  0.00  0.00  0.87  0.00  0.00  0.00  0.00  0.00
  YS02001605YS02001607    1.00   0.13  0.00  0.00  0.87  0.00  0.00  0.00  0.00  0.00
  YS02001607YS02001610    1.00   0.13  0.00  0.00  0.87  0.00  0.00  0.00  0.00  0.00
  YS02001610YS02001613    1.00   0.13  0.00  0.00  0.87  0.00  0.00  0.00  0.00  0.00
  YS02001613YS02001616    1.00   0.13  0.00  0.00  0.87  0.00  0.00  0.00  0.00  0.00
  YS02001616YS02001619    1.00   0.13  0.00  0.00  0.87  0.00  0.00  0.00  0.00  0.00
  YS02001619YS02001622    1.00   0.13  0.00  0.00  0.87  0.01  0.00  0.00  0.00  0.00
  YS02001622YS02001625    1.00   0.13  0.00  0.00  0.87  0.01  0.00  0.00  0.01  0.00
  YS02001625YS02001629    1.00   0.13  0.02  0.00  0.85  0.00  0.01  0.00  0.00  0.00
  YS02001629YS02163301    1.00   0.13  0.00  0.00  0.86  0.00  0.00  0.00  0.00  0.00
  YS02001633YS02163601    1.00   0.00  0.01  0.00  0.99  0.00  0.00  0.00  0.13  0.00
  YS02001641YS02001644    1.00   0.00  0.01  0.00  0.99  0.00  0.00  0.00  0.00  0.00
  YS02001644YS02001647    1.00   0.00  0.14  0.00  0.86  0.00  0.00  0.00  0.00  0.00
  YS02001647YS02001649    1.00   0.00  0.14  0.00  0.86  0.00  0.00  0.00  0.01  0.00
  YS02001649YS02001757    1.00   0.00  0.00  0.00  1.00  0.00  0.00  0.00  0.14  0.00
  YS02001652YS02001649    1.00   0.00  0.00  0.00  0.99  0.01  0.00  0.00  0.12  0.00
  YS02001655YS02001652    1.00   0.00  0.00  0.00  0.84  0.00  0.00  0.16  0.01  0.00
  YS02001658YS02001655    1.00   0.00  0.13  0.00  0.82  0.05  0.00  0.00  0.01  0.00
  YS02001661YS02001658    1.00   0.13  0.00  0.00  0.80  0.07  0.00  0.00  0.03  0.00
  YS02001664YS02001661    1.00   0.13  0.00  0.00  0.79  0.09  0.00  0.00  0.86  0.00
  YS02001745YS02001748    1.00   0.00  0.00  0.00  0.80  0.00  0.00  0.20  0.03  0.00
  YS02001748YS02001751    1.00   0.00  0.00  0.00  0.94  0.06  0.00  0.00  0.15  0.00
  YS02001751YS02001754    1.00   0.00  0.00  0.00  0.84  0.00  0.00  0.16  0.02  0.00
  YS02001754YS02001757    1.00   0.00  0.00  0.00  0.99  0.01  0.00  0.00  0.15  0.00
  YS02001757CaochengTiaoxuchi    1.00   0.00  0.00  0.00  0.98  0.02  0.00  0.00  0.15  0.00
  YS02001759YS02001757    1.00   0.00  0.00  0.00  0.99  0.01  0.00  0.00  0.06  0.00
  YS02001762YS02001759    1.00   0.00  0.00  0.00  1.00  0.00  0.00  0.00  0.01  0.00
  YS02001765YS02001762    1.00   0.00  0.00  0.00  1.00  0.00  0.00  0.00  0.12  0.00
  YS02001767YS02001765    1.00   0.00  0.00  0.00  1.00  0.00  0.00  0.00  0.00  0.00
  YS02001770YS02001767    1.00   0.00  0.00  0.00  1.00  0.00  0.00  0.00  0.00  0.00
  YS02001774YS02001770    1.00   0.00  0.13  0.00  0.87  0.00  0.00  0.00  0.00  0.00
  YS02001779YS02001774    1.00   0.00  0.00  0.00  1.00  0.00  0.00  0.00  0.13  0.00
  YS02001783YS02001784    1.00   0.00  0.14  0.00  0.86  0.00  0.00  0.00  0.00  0.00
  YS02001784YS02001785    1.00   0.00  0.00  0.00  1.00  0.00  0.00  0.00  0.13  0.00
  YS02001786YS02001788    1.00   0.00  0.00  0.00  0.97  0.03  0.00  0.00  0.00  0.00
  YS02001788YS02001790    1.00   0.00  0.00  0.00  0.97  0.03  0.00  0.00  0.15  0.00
  YS02001790YS02001791    1.00   0.00  0.00  0.00  0.84  0.16  0.00  0.00  0.01  0.00
  YS02001791YS02001793    1.00   0.00  0.00  0.00  0.83  0.17  0.00  0.00  0.00  0.00
  YS02001793JiankangQianchi    1.00   0.00  0.00  0.00  0.93  0.07  0.00  0.00  0.14  0.00
  YS02001882YS02001884    1.00   0.13  0.00  0.00  0.87  0.00  0.00  0.00  0.00  0.00
  YS02001884YS02001887    1.00   0.06  0.05  0.00  0.89  0.00  0.00  0.00  0.00  0.00
  YS02001887YS02001890    1.00   0.00  0.00  0.00  0.97  0.00  0.03  0.00  0.00  0.00
  YS02001890YS02001895    1.00   0.00  0.13  0.00  0.87  0.00  0.00  0.00  0.00  0.00
  YS02001895YS02001898    1.00   0.14  0.00  0.00  0.86  0.00  0.01  0.00  0.00  0.00
  YS02001898YS02001901    1.00   0.14  0.00  0.00  0.86  0.00  0.00  0.00  0.00  0.00
  YS02001901YS02001904    1.00   0.14  0.00  0.00  0.86  0.00  0.00  0.00  0.00  0.00
  YS02001904YS02001907    1.00   0.00  0.13  0.00  0.86  0.00  0.00  0.00  0.00  0.00
  YS02001907YS02006553    1.00   0.00  0.02  0.00  0.98  0.00  0.00  0.00  0.00  0.00
  YS02001910YS02001907    1.00   0.00  0.00  0.00  0.97  0.00  0.00  0.03  0.10  0.00
  YS02001915YS02001910    1.00   0.00  0.00  0.00  0.98  0.02  0.00  0.00  0.11  0.00
  YS02001918YS02001915    1.00   0.00  0.01  0.00  0.98  0.02  0.00  0.00  0.74  0.00
  YS02001920YS02001918    1.00   0.00  0.01  0.00  0.99  0.00  0.00  0.00  0.00  0.00
  YS02001923YS02001920    1.00   0.00  0.00  0.00  1.00  0.00  0.00  0.00  0.93  0.00
  YS02001926YS02001923    1.00   0.00  0.07  0.00  0.03  0.00  0.89  0.00  0.00  0.00
  YS02001929YS02001926    1.00   0.00  0.13  0.00  0.87  0.00  0.00  0.00  0.87  0.00
  YS02006553YS02006556    1.00   0.01  0.00  0.00  0.99  0.00  0.00  0.00  0.03  0.00
  YS02006556YS02006558    1.00   0.00  0.00  0.00  1.00  0.00  0.00  0.00  0.00  0.00
  YS02006558YS02006561    1.00   0.14  0.00  0.00  0.07  0.79  0.00  0.00  0.20  0.00
  YS02006561YS02001783    1.00   0.14  0.00  0.00  0.83  0.02  0.00  0.00  0.74  0.00
  YS02163301YS02001633    1.00   0.00  0.13  0.00  0.87  0.00  0.00  0.00  0.00  0.00
  YS02163601YS02164001    1.00   0.00  0.08  0.00  0.92  0.00  0.00  0.00  0.00  0.00
  YS02164001YS02001641    1.00   0.01  0.07  0.00  0.92  0.00  0.00  0.00  0.05  0.00
  
  
  *************************
  Conduit Surcharge Summary
  *************************
  
  ----------------------------------------------------------------------------
                                                           Hours        Hours 
                         --------- Hours Full --------   Above Full   Capacity
  Conduit                Both Ends  Upstream  Dnstream   Normal Flow   Limited
  ----------------------------------------------------------------------------
  WS02003072WS02003073        0.01      0.01      0.01      2.62         0.01
  WS02004404WS02004405        0.01      0.01      0.01      2.45         0.01
  WS02006109WS02006110        0.01      0.01      2.03      0.01         0.01
  WS02006110WS02006113        0.01      0.01      1.99      0.01         0.01
  WS02006111WS02006112        0.01      0.01      2.11      0.01         0.01
  WS02006228WS02006109        1.96      2.03      1.96      2.19         1.96
  WS02006229WS02006228        1.96      1.98      1.96      2.13         1.96
  WS02006230WS02006229        2.07      2.11      2.07      2.76         2.07
  WS02006231WS02006230        0.01      0.01      0.01      2.62         0.01
  WS02006232WS02006231        0.01      0.01      2.03      0.01         0.01
  WS02006234WS02006232        1.93      1.93      2.03      0.01         0.01
  WS02006235WS02006234        0.01      0.01      1.98      2.51         0.01
  WS02006238WS02006235        1.98      1.98      2.04      0.01         0.01
  WS02006239WS02006238        2.00      2.03      2.00      2.16         2.00
  WS02006240WS02006239        1.98      1.99      1.98      2.18         1.98
  WS02006242WS02006240        1.98      1.98      2.08      2.26         0.01
  WS02006243WS02006242        2.01      2.01      2.06      0.01         0.01
  WS02006245WS02006243        2.00      2.01      2.00      2.25         1.99
  WS02006247WS02006245        2.00      2.02      2.00      2.34         2.00
  WS02006248WS02006247        2.00      2.00      2.01      0.01         0.01
  WS02006249WS02006248        1.99      1.99      2.01      2.33         0.01
  WS02006251WS02006249        2.01      2.02      2.01      2.31         2.01
  WS02006252WS02006251        2.34      2.34      2.34      2.34         0.01
  WS02006256WS02006235        2.57      2.58      3.33      0.02         0.01
  YS02001580YS02001583        0.21      0.21      0.53      0.01         0.01
  YS02001583YS02001586        0.24      0.24      0.96      0.01         0.01
  YS02001586YS02001590        0.97      0.97      1.20      0.01         0.01
  YS02001590YS02001593        1.21      1.21      1.24      0.96         0.01
  YS02001593YS02001596        1.23      1.23      1.56      0.01         0.01
  YS02001596YS02001600        1.79      1.79      2.04      0.01         0.01
  YS02001600YS02001601        6.74      6.74      6.84      0.01         0.01
  YS02001601YS02001602        6.82      6.82      6.84      1.37         0.01
  YS02001602YS02001605        6.80      6.80      6.82      2.34         0.19
  YS02001605YS02001607        6.78      6.80      6.78      1.87         1.79
  YS02001607YS02001610        1.72      1.72      3.97      0.01         0.01
  YS02001610YS02001613        1.74      1.74      3.97      0.01         0.01
  YS02001613YS02001616        1.66      1.66      1.74      0.01         0.01
  YS02001616YS02001619        1.64      1.64      1.66      0.01         0.01
  YS02001619YS02001622        1.64      1.64      1.66      0.67         0.64
  YS02001622YS02001625        1.66      1.66      6.69      0.01         0.01
  YS02001625YS02001629        1.49      1.49      6.69      0.01         0.01
  YS02001629YS02163301        6.69      6.69      6.69      0.27         0.32
  YS02001633YS02163601        6.70      6.70      6.70      0.54         0.54
  YS02001641YS02001644        6.64      6.66      6.64      1.84         1.73
  YS02001644YS02001647        6.40      6.40      6.64      0.01         0.01
  YS02001647YS02001649        6.40      6.40      6.43      0.01         0.01
  YS02001649YS02001757        6.43      6.43      6.44      0.01         0.01
  YS02001652YS02001649        6.37      6.37      6.43      0.01         0.01
  YS02001655YS02001652        1.18      1.18      6.36      0.01         0.01
  YS02001658YS02001655        0.01      0.01      1.18      0.01         0.01
  YS02001661YS02001658        0.01      0.01      0.01      0.01         0.01
  YS02001748YS02001751        0.03      0.03      0.77      0.01         0.01
  YS02001751YS02001754        0.77      0.77      6.24      0.01         0.01
  YS02001754YS02001757        6.29      6.29      6.44      0.01         0.01
  YS02001757CaochengTiaoxuchi        6.44      6.44      6.55      0.01         0.01
  YS02001759YS02001757        6.40      6.40      6.44      0.01         0.01
  YS02001762YS02001759        6.40      6.40      6.40      0.01         0.01
  YS02001765YS02001762        6.39      6.39      6.40      0.01         0.01
  YS02001767YS02001765        6.38      6.38      6.39      0.01         0.01
  YS02001770YS02001767        6.38      6.38      6.38      0.25         0.36
  YS02001774YS02001770        6.36      6.36      6.40      0.01         0.01
  YS02001779YS02001774        6.22      6.22      6.40      0.01         0.01
  YS02001783YS02001784        0.66      0.66      0.67      0.58         0.50
  YS02001784YS02001785        0.66      0.67      0.66      1.04         0.66
  YS02001786YS02001788        0.66      0.66      0.66      0.84         0.66
  YS02001788YS02001790        0.66      0.66      6.60      0.01         0.01
  YS02001790YS02001791        6.60      6.60      6.61      0.01         0.01
  YS02001791YS02001793        6.61      6.61      6.62      0.01         0.01
  YS02001793JiankangQianchi        6.61      6.61      6.73      0.01         0.01
  YS02001882YS02001884        0.19      0.19      0.24      0.01         0.01
  YS02001884YS02001887        0.32      0.32      0.35      0.01         0.01
  YS02001887YS02001890        0.40      0.40      0.43      0.01         0.01
  YS02001890YS02001895        0.16      0.16      0.48      0.01         0.01
  YS02001895YS02001898        0.12      0.12      0.16      0.01         0.01
  YS02001898YS02001901        0.17      0.17      0.32      0.01         0.01
  YS02001901YS02001904        0.29      0.29      0.32      0.01         0.01
  YS02001904YS02001907        0.29      0.29      0.81      0.01         0.01
  YS02001907YS02006553        1.05      1.05      1.16      0.01         0.01
  YS02001910YS02001907        0.47      0.47      0.79      0.01         0.01
  YS02001915YS02001910        0.19      0.19      0.47      0.01         0.01
  YS02001918YS02001915        0.01      0.01      0.19      0.01         0.01
  YS02006553YS02006556        0.68      0.68      0.81      0.01         0.01
  YS02006556YS02006558        0.74      0.74      0.84      0.01         0.01
  YS02006558YS02006561        0.33      0.64      0.33      0.97         0.33
  YS02006561YS02001783        0.01      0.01      0.66      0.01         0.01
  YS02163301YS02001633        6.69      6.69      6.70      0.01         0.01
  YS02163601YS02164001        6.66      6.66      6.70      0.23         0.01
  YS02164001YS02001641        6.66      6.66      6.66      0.98         0.90
  
  
  ***************
  Pumping Summary
  ***************
  
  ---------------------------------------------------------------------------------------------------------
                                                  Min       Avg       Max     Total     Power    % Time Off
                        Percent   Number of      Flow      Flow      Flow    Volume     Usage    Pump Curve
  Pump                 Utilized   Start-Ups       LPS       LPS       LPS  10^6 ltr     Kw-hr    Low   High
  ---------------------------------------------------------------------------------------------------------
  CC-R1                    1.06           1      0.00    683.00    683.00     0.208      3.51    0.0  100.0
  CC-R2                    1.06           1      0.00    683.00    683.00     0.208      3.51    0.0  100.0
  CC-S1                   29.29           3      0.00    200.00    200.00     1.687      6.67    0.0   62.9
  CC-S2                   29.29           3      0.00    200.00    200.00     1.687      6.67    0.0   62.9
  JK-R1                    0.97           2      0.00    347.46   1000.00     0.078      0.47    0.0    0.0
  JK-R2                    0.97           2      0.00    347.46   1000.00     0.078      0.47    0.0    0.0
  JK-S                     0.97           2      0.00    104.30    300.00     0.023      0.44    0.0    0.0
  XR-1                   100.00           1      0.00     95.00     95.00     2.736     68.18    0.0    0.0
  XR-2                   100.00           1      0.00     95.00     95.00     2.736     68.18    0.0    0.0
  XR-3                   100.00           1      0.00     95.00     95.00     2.736     68.18    0.0    0.0
  XR-4                   100.00           1      0.00     95.00     95.00     2.736     68.18    0.0    0.0
  

  Analysis begun on:  Wed Nov  5 16:18:54 2025
  Analysis ended on:  Wed Nov  5 16:18:57 2025
  Total elapsed time: 00:00:03