
  EPA STORM WATER MANAGEMENT MODEL - VERSION 5.2 (Build 5.2.4)
  PYSWMM TOOLKIT API - VERSION v1.0 (2023-11-27)
  ------------------------------------------------------------

  WARNING 04: minimum elevation drop used for Conduit WS02004404WS02004405
  WARNING 03: negative offset ignored for Link YS02001904YS02001907
  
  ****************
  Analysis Options
  ****************
  Flow Units ............... LPS
  Process Models:
    Rainfall/Runoff ........ YES
    RDII ................... NO
    Snowmelt ............... NO
    Groundwater ............ NO
    Flow Routing ........... YES
    Ponding Allowed ........ NO
    Water Quality .......... NO
  Infiltration Method ...... HORTON
  Flow Routing Method ...... DYNWAVE
  Surcharge Method ......... EXTRAN
  Starting Date ............ 08/28/2015 08:00:00
  Ending Date .............. 08/28/2015 16:00:00
  Antecedent Dry Days ...... 8.0
  Report Time Step ......... 00:01:00
  Wet Time Step ............ 00:01:00
  Dry Time Step ............ 00:01:00
  Routing Time Step ........ 30.00 sec
  Variable Time Step ....... YES
  Maximum Trials ........... 8
  Number of Threads ........ 4
  Head Tolerance ........... 0.001500 m
  
  
  **************************        Volume         Depth
  Runoff Quantity Continuity     hectare-m            mm
  **************************     ---------       -------
  Initial LID Storage ......         0.049         1.488
  Total Precipitation ......         2.772        83.557
  Evaporation Loss .........         0.000         0.000
  Infiltration Loss ........         0.079         2.368
  Surface Runoff ...........         2.083        62.809
  Final Storage ............         0.660        19.884
  Continuity Error (%) .....        -0.020
  
  
  **************************        Volume        Volume
  Flow Routing Continuity        hectare-m      10^6 ltr
  **************************     ---------     ---------
  Dry Weather Inflow .......         0.602         6.020
  Wet Weather Inflow .......         2.084        20.837
  Groundwater Inflow .......         0.000         0.000
  RDII Inflow ..............         0.000         0.000
  External Inflow ..........         0.105         1.045
  External Outflow .........         1.531        15.312
  Flooding Loss ............         1.193        11.933
  Evaporation Loss .........         0.000         0.000
  Exfiltration Loss ........         0.000         0.000
  Initial Stored Volume ....         0.303         3.031
  Final Stored Volume ......         0.827         8.274
  Continuity Error (%) .....       -14.827
  
  
  *************************
  Highest Continuity Errors
  *************************
  Node YS02001774 (13.28%)
  Node YS02001583 (-12.55%)
  Node WS02006256 (-6.15%)
  Node YS02001884 (4.36%)
  Node YS02001754 (2.70%)
  
  
  ***************************
  Time-Step Critical Elements
  ***************************
  Link WS02001212WS02001213 (33.72%)
  Link WS02006235WS02006234 (23.51%)
  Link WS02006238WS02006235 (13.60%)
  Link YS02006556YS02006558 (7.71%)
  Link WS02003066WSF200 (5.59%)
  
  
  ********************************
  Highest Flow Instability Indexes
  ********************************
  Link WS02006113WS02006111 (42)
  Link WS02006111WS02006112 (36)
  Link WS02006110WS02006113 (26)
  Link WS02006256WS02006235 (18)
  Link YS02001607YS02001610 (17)
  
  
  *********************************
  Most Frequent Nonconverging Nodes
  *********************************
  Node CC-1 (11.66%)
  Node CC-2 (11.66%)
  Node JK-1 (11.66%)
  Node JK-2 (11.66%)
  Node WSC (11.66%)
  
  
  *************************
  Routing Time Step Summary
  *************************
  Minimum Time Step           :     0.01 sec
  Average Time Step           :     3.82 sec
  Maximum Time Step           :     6.46 sec
  % of Time in Steady State   :     0.00
  Average Iterations per Step :     3.15
  % of Steps Not Converging   :    11.66
  Time Step Frequencies       :
     30.000 - 13.228 sec      :     0.00 %
     13.228 -  5.833 sec      :    32.60 %
      5.833 -  2.572 sec      :    41.07 %
      2.572 -  1.134 sec      :    20.39 %
      1.134 -  0.500 sec      :     5.94 %
  
  
  ***************************
  Subcatchment Runoff Summary
  ***************************
  
  ------------------------------------------------------------------------------------------------------------------------------
                            Total      Total      Total      Total     Imperv       Perv      Total       Total     Peak  Runoff
                           Precip      Runon       Evap      Infil     Runoff     Runoff     Runoff      Runoff   Runoff   Coeff
  Subcatchment                 mm         mm         mm         mm         mm         mm         mm    10^6 ltr      LPS
  ------------------------------------------------------------------------------------------------------------------------------
  sub60                     83.56       0.00       0.00       1.42      55.83       6.32      62.15        0.82   508.11   0.744
  sub61                     83.56       0.00       0.00       2.18      55.78       9.43      65.21        1.20   737.38   0.780
  sub62                     83.56       0.00       0.00       0.97      59.47       4.29      63.76        1.75  1014.13   0.763
  sub63                     83.56       0.00       0.00       3.98      47.77      15.86      63.64        1.44   824.01   0.762
  sub64                     83.56       0.00       0.00       1.91      54.40       7.85      62.26        1.50   819.47   0.745
  sub65                     83.56       0.00       0.00       1.75      58.72       7.17      65.90        1.81   958.89   0.789
  sub66                     83.56       0.00       0.00       4.59      46.21      14.63      60.84        2.84  1229.90   0.728
  sub67                     83.56       0.00       0.00       0.96      60.96       4.43      65.39        1.22   793.01   0.783
  sub68                     83.56       0.00       0.00       1.67      53.84       7.24      61.08        1.68  1007.08   0.731
  sub69                     83.56       0.00       0.00       1.53      56.21       8.40      64.60        2.39  1244.42   0.773
  sub70                     83.56       0.00       0.00       5.06      45.04      18.20      63.24        1.83   711.40   0.757
  sub71                     83.56       0.00       0.00       0.89      54.03       3.89      57.91        1.51   831.99   0.693
  sub72                     83.56       0.00       0.00       0.85      58.37       3.62      61.99        0.85   427.64   0.742
  

  ***********************
  LID Performance Summary
  ***********************

  --------------------------------------------------------------------------------------------------------------------
                                         Total      Evap     Infil   Surface    Drain    Initial     Final  Continuity
                                        Inflow      Loss      Loss   Outflow   Outflow   Storage   Storage       Error
  Subcatchment      LID Control             mm        mm        mm        mm        mm        mm        mm           %
  --------------------------------------------------------------------------------------------------------------------
  sub60             GreenRoof            83.56      0.00      0.00      0.00      0.00      7.05     90.61       -0.00
  sub61             GreenRoof            83.56      0.00      0.00      0.00      0.00      7.05     90.61       -0.00
  sub62             GreenRoof            83.56      0.00      0.00      0.00      0.00      7.05     90.61       -0.00
  sub63             GreenRoof            83.56      0.00      0.00      0.00      0.00      7.05     90.61       -0.00
  sub64             GreenRoof            83.56      0.00      0.00      0.00      0.00      7.05     90.61       -0.00
  sub65             GreenRoof            83.56      0.00      0.00      0.00      0.00      7.05     90.61       -0.00
  sub66             GreenRoof            83.56      0.00      0.00      0.00      0.00      7.05     90.61       -0.00
  sub67             GreenRoof            83.56      0.00      0.00      0.00      0.00      7.05     90.61       -0.00
  sub68             GreenRoof            83.56      0.00      0.00      0.00      0.00      7.05     90.61       -0.00
  sub69             GreenRoof            83.56      0.00      0.00      0.00      0.00      7.05     90.61       -0.00
  sub70             GreenRoof            83.56      0.00      0.00      0.00      0.00      7.05     90.61       -0.00
  sub71             GreenRoof            83.56      0.00      0.00      0.00      0.00      7.05     90.61       -0.00
  sub72             GreenRoof            83.56      0.00      0.00      0.00      0.00      7.05     90.61       -0.00
  
  ******************
  Node Depth Summary
  ******************
  
  ---------------------------------------------------------------------------------
                                 Average  Maximum  Maximum  Time of Max    Reported
                                   Depth    Depth      HGL   Occurrence   Max Depth
  Node                 Type       Meters   Meters   Meters  days hr:min      Meters
  ---------------------------------------------------------------------------------
  WS02001211           JUNCTION     0.76     0.78     5.62     0  03:21        0.78
  WS02001212           JUNCTION     0.46     0.49     5.55     0  03:09        0.49
  WS02001213           JUNCTION     0.68     0.73     5.49     0  03:16        0.73
  WS02003059           JUNCTION     0.73     0.78     5.47     0  03:08        0.78
  WS02003060           JUNCTION     0.38     0.47     5.41     0  03:07        0.47
  WS02003066           JUNCTION     0.16     0.27     5.82     0  03:07        0.27
  WS02003067           JUNCTION     0.44     0.65     5.97     0  03:07        0.65
  WS02003069           JUNCTION     0.43     0.54     5.12     0  03:15        0.54
  WS02003072           JUNCTION     0.49     0.60     4.97     0  03:16        0.60
  WS02003073           JUNCTION     0.30     0.37     4.43     0  03:17        0.37
  WS02004138           JUNCTION     0.19     0.20     7.45     0  00:00        0.19
  WS02004139           JUNCTION     0.71     0.73     5.64     0  03:18        0.73
  WS02004401           JUNCTION     0.52     0.75     6.75     0  02:08        0.75
  WS02004402           JUNCTION     0.55     0.78     6.74     0  02:07        0.78
  WS02004403           JUNCTION     0.58     0.80     6.73     0  02:07        0.80
  WS02004404           JUNCTION     0.65     0.88     6.73     0  02:07        0.88
  WS02004405           JUNCTION     0.65     0.88     6.73     0  02:07        0.87
  WS02004406           JUNCTION     0.66     0.88     6.71     0  02:07        0.88
  WS02004407           JUNCTION     0.14     0.26     6.57     0  02:08        0.26
  WS02004409           JUNCTION     0.31     0.57     6.34     0  03:05        0.57
  WS02004410           JUNCTION     0.34     0.59     6.31     0  03:13        0.59
  WS02004411           JUNCTION     0.37     0.61     6.29     0  03:06        0.61
  WS02004412           JUNCTION     0.39     0.62     6.26     0  03:14        0.62
  WS02004413           JUNCTION     0.54     0.79     6.26     0  03:14        0.79
  WS02006109           JUNCTION     0.57     0.84     7.45     0  01:36        0.83
  WS02006110           JUNCTION     0.58     0.82     7.41     0  01:57        0.82
  WS02006111           JUNCTION     0.15     0.25     6.96     0  01:57        0.25
  WS02006112           JUNCTION     0.67     0.93     6.82     0  02:04        0.93
  WS02006113           JUNCTION     0.22     0.39     7.29     0  01:56        0.39
  WS02006115           JUNCTION     0.41     0.65     6.78     0  02:05        0.65
  WS02006116           JUNCTION     0.49     0.73     6.77     0  02:06        0.73
  WS02006228           JUNCTION     0.56     0.84     7.49     0  02:04        0.84
  WS02006229           JUNCTION     0.53     0.83     7.52     0  01:35        0.82
  WS02006230           JUNCTION     0.52     0.86     7.60     0  02:24        0.86
  WS02006231           JUNCTION     0.32     0.60     7.72     0  02:17        0.60
  WS02006232           JUNCTION     0.44     0.75     7.79     0  02:15        0.75
  WS02006234           JUNCTION     0.36     0.71     7.87     0  02:17        0.71
  WS02006235           JUNCTION     0.39     0.77     7.93     0  02:17        0.76
  WS02006238           JUNCTION     0.42     0.80     7.95     0  02:16        0.80
  WS02006239           JUNCTION     0.40     0.81     8.02     0  02:08        0.80
  WS02006240           JUNCTION     0.39     0.79     8.08     0  02:17        0.79
  WS02006242           JUNCTION     0.45     0.90     8.17     0  02:08        0.90
  WS02006243           JUNCTION     0.39     0.84     8.26     0  02:17        0.84
  WS02006245           JUNCTION     0.40     0.86     8.34     0  02:17        0.85
  WS02006247           JUNCTION     0.42     0.89     8.39     0  02:21        0.89
  WS02006248           JUNCTION     0.40     0.86     8.45     0  02:17        0.85
  WS02006249           JUNCTION     0.42     1.09     8.69     0  02:17        1.09
  WS02006251           JUNCTION     0.42     0.91     8.58     0  02:17        0.91
  WS02006252           JUNCTION     0.28     1.50     9.74     0  00:00        0.72
  WS02006256           JUNCTION     0.63     2.35     9.28     0  00:00        2.35
  WSF200               JUNCTION     0.13     0.25     5.48     0  03:07        0.25
  YS02001580           JUNCTION     0.16     1.05     9.59     0  01:34        0.77
  YS02001583           JUNCTION     0.19     1.14     9.64     0  01:34        0.82
  YS02001586           JUNCTION     0.30     1.13     9.30     0  01:33        1.13
  YS02001590           JUNCTION     0.42     1.40     9.26     0  01:32        1.37
  YS02001593           JUNCTION     0.37     1.38     9.24     0  01:34        1.28
  YS02001596           JUNCTION     0.67     1.77     9.19     0  02:08        1.77
  YS02001600           JUNCTION     0.90     1.87     9.00     0  01:32        1.87
  YS02001601           JUNCTION     1.15     2.06     8.90     0  01:32        2.06
  YS02001602           JUNCTION     1.05     1.87     8.77     0  01:33        1.87
  YS02001605           JUNCTION     1.01     1.78     8.68     0  01:33        1.77
  YS02001607           JUNCTION     0.98     1.68     8.53     0  01:33        1.64
  YS02001610           JUNCTION     1.03     1.68     8.48     0  01:33        1.68
  YS02001613           JUNCTION     0.99     1.70     8.54     0  01:34        1.70
  YS02001616           JUNCTION     0.92     1.61     8.52     0  01:34        1.61
  YS02001619           JUNCTION     0.91     1.61     8.54     0  01:34        1.61
  YS02001622           JUNCTION     0.91     1.62     8.52     0  01:34        1.58
  YS02001625           JUNCTION     1.16     1.78     8.38     0  01:34        1.78
  YS02001629           JUNCTION     1.20     1.85     8.40     0  01:34        1.85
  YS02001633           JUNCTION     1.27     2.03     8.49     0  01:36        2.01
  YS02001641           JUNCTION     1.26     2.02     8.46     0  02:08        1.94
  YS02001644           JUNCTION     1.25     1.92     8.35     0  01:36        1.92
  YS02001647           JUNCTION     1.07     1.80     8.41     0  01:37        1.73
  YS02001649           JUNCTION     1.24     2.05     8.44     0  01:37        1.95
  YS02001652           JUNCTION     1.06     2.10     8.69     0  01:35        1.82
  YS02001655           JUNCTION     0.85     1.80     8.65     0  01:37        1.65
  YS02001658           JUNCTION     0.62     1.63     8.77     0  01:37        1.44
  YS02001661           JUNCTION     0.42     1.48     8.89     0  01:37        1.26
  YS02001664           JUNCTION     0.08     0.91     8.84     0  01:37        0.83
  YS02001745           JUNCTION     0.30     1.71     9.23     0  01:37        0.70
  YS02001748           JUNCTION     0.65     2.02     9.10     0  01:37        1.14
  YS02001751           JUNCTION     0.80     2.02     8.90     0  01:37        1.32
  YS02001754           JUNCTION     1.02     2.10     8.71     0  01:37        1.83
  YS02001757           JUNCTION     1.32     2.21     8.47     0  01:37        1.96
  YS02001759           JUNCTION     1.24     2.20     8.56     0  01:37        1.94
  YS02001762           JUNCTION     1.21     2.15     8.55     0  01:37        1.99
  YS02001765           JUNCTION     1.17     2.10     8.55     0  01:36        2.00
  YS02001767           JUNCTION     1.14     2.03     8.52     0  01:36        1.98
  YS02001770           JUNCTION     1.14     1.95     8.44     0  01:36        1.95
  YS02001774           JUNCTION     1.20     2.05     8.47     0  01:36        2.00
  YS02001779           JUNCTION     0.97     1.68     8.37     0  01:36        1.68
  YS02001783           JUNCTION     0.56     1.80     7.94     0  01:37        1.49
  YS02001784           JUNCTION     0.60     1.79     7.86     0  01:37        1.43
  YS02001786           JUNCTION     0.59     1.64     7.67     0  01:37        1.26
  YS02001788           JUNCTION     0.59     1.55     7.53     0  01:37        1.14
  YS02001790           JUNCTION     0.83     1.67     7.31     0  01:37        1.30
  YS02001791           JUNCTION     0.93     1.57     7.04     0  02:17        1.57
  YS02001793           JUNCTION     1.41     1.97     6.80     0  02:08        1.97
  YS02001882           JUNCTION     0.39     1.82     8.53     0  01:35        1.64
  YS02001884           JUNCTION     0.48     1.89     8.50     0  01:35        1.74
  YS02001887           JUNCTION     0.56     1.90     8.44     0  01:35        1.82
  YS02001890           JUNCTION     0.58     1.81     8.32     0  01:35        1.81
  YS02001895           JUNCTION     0.36     1.60     8.34     0  01:35        1.56
  YS02001898           JUNCTION     0.37     1.65     8.38     0  01:35        1.56
  YS02001901           JUNCTION     0.48     1.69     8.29     0  01:35        1.67
  YS02001904           JUNCTION     0.46     1.65     8.28     0  01:35        1.64
  YS02001907           JUNCTION     0.77     1.96     8.25     0  01:35        1.96
  YS02001910           JUNCTION     0.57     2.04     8.55     0  01:36        1.89
  YS02001915           JUNCTION     0.39     2.00     8.72     0  01:36        1.80
  YS02001918           JUNCTION     0.23     1.81     8.88     0  01:35        1.43
  YS02001920           JUNCTION     0.31     2.14     9.15     0  01:35        1.49
  YS02001923           JUNCTION     0.17     2.03     9.29     0  01:36        1.28
  YS02001926           JUNCTION     0.20     1.90     9.35     0  01:36        1.16
  YS02001929           JUNCTION     0.11     1.78     9.47     0  01:36        0.98
  YS02006553           JUNCTION     0.77     2.05     8.33     0  01:37        1.97
  YS02006556           JUNCTION     0.74     2.12     8.43     0  01:37        1.95
  YS02006558           JUNCTION     0.79     2.20     8.47     0  01:37        1.99
  YS02006561           JUNCTION     0.23     1.36     8.02     0  01:37        1.10
  YS02163301           JUNCTION     1.22     2.03     8.55     0  02:08        2.03
  YS02163601           JUNCTION     1.31     2.08     8.48     0  02:08        2.02
  YS02164001           JUNCTION     1.24     2.04     8.49     0  02:08        1.93
  CC-1                 OUTFALL      0.00     0.00     0.00     0  00:00        0.00
  CC-2                 OUTFALL      0.00     0.00     0.00     0  00:00        0.00
  JK-1                 OUTFALL      0.00     0.00     0.00     0  00:00        0.00
  JK-2                 OUTFALL      0.00     0.00     0.00     0  00:00        0.00
  WSC                  OUTFALL      0.29     0.37     1.04     0  03:17        0.37
  CC-storage           STORAGE      1.87     2.30     7.80     0  02:10        2.30
  JK-storage           STORAGE      4.72     5.80     6.60     0  01:37        5.80
  XR-storage           STORAGE      0.31     5.00     3.00     0  00:00        4.91
  
  
  *******************
  Node Inflow Summary
  *******************
  
  -------------------------------------------------------------------------------------------------
                                  Maximum  Maximum                  Lateral       Total        Flow
                                  Lateral    Total  Time of Max      Inflow      Inflow     Balance
                                   Inflow   Inflow   Occurrence      Volume      Volume       Error
  Node                 Type           LPS      LPS  days hr:min    10^6 ltr    10^6 ltr     Percent
  -------------------------------------------------------------------------------------------------
  WS02001211           JUNCTION      7.35   389.13     0  03:38       0.212        11.1       0.348
  WS02001212           JUNCTION      0.00   390.84     0  03:41           0        11.1       0.207
  WS02001213           JUNCTION      0.00   392.60     0  03:40           0        11.1       0.238
  WS02003059           JUNCTION      0.00   395.64     0  03:40           0          11       0.328
  WS02003060           JUNCTION     16.53   816.06     0  03:07       0.476        14.8       0.146
  WS02003066           JUNCTION      0.00   411.86     0  03:07           0        3.32       0.036
  WS02003067           JUNCTION      0.00   411.86     0  03:14           0        3.32       0.121
  WS02003069           JUNCTION      0.32   816.35     0  03:15     0.00922        14.8       0.154
  WS02003072           JUNCTION      0.00   816.35     0  03:16           0        14.7       0.201
  WS02003073           JUNCTION      1.82   818.17     0  03:16      0.0524        14.8       0.215
  WS02004138           JUNCTION      0.00   380.00     0  00:00           0        10.9       0.059
  WS02004139           JUNCTION      0.32   395.52     0  00:00     0.00924        10.9       0.407
  WS02004401           JUNCTION      0.00   412.12     0  02:05           0        3.42       0.290
  WS02004402           JUNCTION      0.00   412.03     0  02:05           0        3.41       0.295
  WS02004403           JUNCTION      0.00   412.01     0  01:58           0         3.4       0.290
  WS02004404           JUNCTION      0.16   412.13     0  02:06     0.00467        3.39       0.242
  WS02004405           JUNCTION      0.04   412.18     0  03:04      0.0011        3.38       0.361
  WS02004406           JUNCTION      0.00   412.22     0  02:07           0        3.37       0.605
  WS02004407           JUNCTION      0.00   412.02     0  03:05           0        3.35       0.027
  WS02004409           JUNCTION      0.00   411.97     0  02:08           0        3.35       0.066
  WS02004410           JUNCTION      0.00   411.95     0  03:05           0        3.35       0.116
  WS02004411           JUNCTION      0.00   411.93     0  03:13           0        3.35       0.152
  WS02004412           JUNCTION      0.00   411.91     0  03:13           0        3.34       0.209
  WS02004413           JUNCTION      0.00   411.93     0  03:06           0        3.33       0.376
  WS02006109           JUNCTION      1.23   411.69     0  03:11      0.0354        3.46       0.225
  WS02006110           JUNCTION      0.00   411.70     0  03:11           0        3.45       0.180
  WS02006111           JUNCTION      0.00   423.67     0  03:09           0        3.45       0.022
  WS02006112           JUNCTION      0.00   413.63     0  01:57           0        3.45       0.507
  WS02006113           JUNCTION      0.00   411.94     0  02:05           0        3.45       0.042
  WS02006115           JUNCTION      0.00   412.47     0  02:05           0        3.43       0.182
  WS02006116           JUNCTION      0.00   412.20     0  02:05           0        3.42       0.137
  WS02006228           JUNCTION      0.00   410.46     0  03:11           0        3.43       0.083
  WS02006229           JUNCTION      0.00   410.46     0  03:11           0        3.43       0.127
  WS02006230           JUNCTION     10.28   410.59     0  02:17       0.296        3.44       0.174
  WS02006231           JUNCTION      0.00   400.47     0  02:17           0        3.14      -0.099
  WS02006232           JUNCTION      0.00   400.45     0  02:17           0        3.15       0.257
  WS02006234           JUNCTION      0.00   401.82     0  02:17           0        3.14      -0.172
  WS02006235           JUNCTION      0.00   406.33     0  02:12           0        3.16       0.225
  WS02006238           JUNCTION      0.00   401.50     0  02:17           0        3.14      -0.201
  WS02006239           JUNCTION      0.00   401.03     0  02:17           0        3.13      -0.154
  WS02006240           JUNCTION      0.00   400.98     0  02:17           0        3.12      -0.048
  WS02006242           JUNCTION      0.00   401.72     0  01:38           0        3.12       0.004
  WS02006243           JUNCTION      0.00   402.25     0  02:17           0        3.12       0.019
  WS02006245           JUNCTION      0.00   401.89     0  02:14           0        3.13       0.302
  WS02006247           JUNCTION      0.00   400.87     0  02:15           0        3.13       0.007
  WS02006248           JUNCTION      0.00   404.90     0  02:17           0        3.13       0.081
  WS02006249           JUNCTION      0.00   458.97     0  00:00           0        3.14       0.210
  WS02006251           JUNCTION      0.08   401.31     0  01:37     0.00222        3.14      -0.003
  WS02006252           JUNCTION      0.00   400.00     0  00:00           0        3.13      -0.030
  WS02006256           JUNCTION      0.00   300.00     0  00:00           0      0.0242      -5.792
  WSF200               JUNCTION      0.00   411.86     0  03:07           0        3.32       0.017
  YS02001580           JUNCTION      0.00   158.86     0  01:33           0     0.00472       4.236
  YS02001583           JUNCTION      0.00   249.94     0  01:34           0      0.0148     -11.154
  YS02001586           JUNCTION    711.40   711.40     0  01:42        1.83        1.84       0.086
  YS02001590           JUNCTION      0.00   317.94     0  01:38           0        1.43       0.018
  YS02001593           JUNCTION      0.00   318.13     0  01:38           0        1.43      -0.009
  YS02001596           JUNCTION      0.00   317.97     0  01:38           0        1.43       0.229
  YS02001600           JUNCTION      0.00   318.04     0  01:40           0        1.43       0.540
  YS02001601           JUNCTION   1244.42  1561.92     0  01:40        2.39        3.81       0.213
  YS02001602           JUNCTION      0.00   570.85     0  01:33           0        2.36       0.375
  YS02001605           JUNCTION      0.00   570.87     0  01:33           0        2.17       0.625
  YS02001607           JUNCTION      0.00   570.87     0  01:33           0        2.15       0.974
  YS02001610           JUNCTION      0.00   662.82     0  01:41           0        2.34       0.967
  YS02001613           JUNCTION      0.00   560.94     0  01:33           0        1.81       1.316
  YS02001616           JUNCTION      0.00   579.63     0  01:33           0        1.79       1.200
  YS02001619           JUNCTION   1229.90  1229.90     0  01:41        2.84         4.4       0.465
  YS02001622           JUNCTION      0.00  1001.44     0  01:34           0        4.18       0.690
  YS02001625           JUNCTION      0.00  1276.24     0  01:42           0        4.33       1.032
  YS02001629           JUNCTION      0.00   950.84     0  01:34           0        2.93       0.736
  YS02001633           JUNCTION    959.09  1451.68     0  01:35        1.82        4.47       0.709
  YS02001641           JUNCTION      0.00  1450.79     0  01:35           0        4.17       0.503
  YS02001644           JUNCTION    819.51  1957.67     0  01:35         1.5        5.64       0.459
  YS02001647           JUNCTION      0.00  1954.61     0  01:35           0        5.32       0.522
  YS02001649           JUNCTION      0.00  2236.67     0  01:36           0         6.7       0.557
  YS02001652           JUNCTION      0.00  1004.18     0  01:38           0        1.44       1.553
  YS02001655           JUNCTION      0.15   999.32     0  01:38     0.00443        1.46       1.723
  YS02001658           JUNCTION      0.00   994.69     0  01:38           0        1.46       0.945
  YS02001661           JUNCTION      0.00   985.48     0  01:38           0        1.46       0.503
  YS02001664           JUNCTION    824.01   824.01     0  01:39        1.44        1.44      -0.032
  YS02001745           JUNCTION    508.11   691.54     0  01:37       0.817       0.828       0.577
  YS02001748           JUNCTION      0.04   792.73     0  01:36      0.0013       0.846       1.576
  YS02001751           JUNCTION      0.01   633.06     0  01:37    0.000317       0.848       2.645
  YS02001754           JUNCTION      0.26   636.89     0  01:37     0.00749       0.843       2.772
  YS02001757           JUNCTION      0.00  3535.68     0  01:37           0        10.1       0.953
  YS02001759           JUNCTION    737.42  1523.30     0  01:37         1.2        2.71       0.829
  YS02001762           JUNCTION      0.00   816.35     0  01:37           0        1.53       1.375
  YS02001765           JUNCTION      0.00   813.48     0  01:37           0        1.55       1.590
  YS02001767           JUNCTION      0.54   814.65     0  01:37      0.0154        1.58       2.271
  YS02001770           JUNCTION   1014.28  1014.28     0  01:39        1.75        1.77       1.777
  YS02001774           JUNCTION      0.00   566.26     0  01:36           0       0.185      15.309
  YS02001779           JUNCTION      0.01   565.27     0  01:36    0.000144       0.148      10.605
  YS02001783           JUNCTION      0.00  1166.13     0  01:37           0        3.96       0.179
  YS02001784           JUNCTION      1.06  1168.40     0  01:37      0.0305        3.98       0.274
  YS02001786           JUNCTION      0.06  1170.14     0  01:37     0.00162        3.97       0.344
  YS02001788           JUNCTION      0.07  1172.79     0  01:37     0.00204        3.96       0.344
  YS02001790           JUNCTION      0.15  1176.49     0  01:36     0.00446        3.95       0.445
  YS02001791           JUNCTION      0.00  1227.24     0  01:36           0        3.93       0.357
  YS02001793           JUNCTION      0.00  1123.42     0  01:36           0        3.92       0.397
  YS02001882           JUNCTION      0.00    96.19     0  01:34           0      0.0126       2.936
  YS02001884           JUNCTION      0.00   138.05     0  01:34           0      0.0486       4.562
  YS02001887           JUNCTION    793.46   793.46     0  01:38        1.23        1.26       0.324
  YS02001890           JUNCTION      0.00   794.39     0  01:38           0        1.22       0.396
  YS02001895           JUNCTION      0.00   587.15     0  01:35           0        1.14       0.129
  YS02001898           JUNCTION      0.00   590.66     0  01:35           0        1.14      -0.027
  YS02001901           JUNCTION      0.00   595.45     0  01:35           0        1.14       0.271
  YS02001904           JUNCTION      0.00   596.98     0  01:35           0        1.15       0.227
  YS02001907           JUNCTION      0.00  1825.45     0  01:39           0         3.6       0.492
  YS02001910           JUNCTION      0.00  1293.15     0  01:39           0        2.46       0.294
  YS02001915           JUNCTION    832.01  1292.21     0  01:39        1.52         2.5       0.045
  YS02001918           JUNCTION      0.00   720.23     0  01:35           0        1.02      -0.040
  YS02001920           JUNCTION      2.87   697.89     0  01:35      0.0827       0.994       0.023
  YS02001923           JUNCTION      0.04   974.98     0  01:35     0.00109       0.893      -0.183
  YS02001926           JUNCTION      0.05  1234.20     0  01:36      0.0015       0.872      -0.415
  YS02001929           JUNCTION    427.64  1142.54     0  01:36       0.852       0.858      -0.355
  YS02006553           JUNCTION      0.00   673.42     0  02:02           0        2.31       0.515
  YS02006556           JUNCTION      0.00   673.85     0  02:02           0        2.32       0.340
  YS02006558           JUNCTION   1007.96  1175.70     0  01:35        1.71        3.99       0.090
  YS02006561           JUNCTION      0.00  1176.09     0  01:35           0        3.96      -0.004
  YS02163301           JUNCTION      0.00   910.10     0  01:34           0        2.89       0.815
  YS02163601           JUNCTION      0.11  1451.42     0  01:35     0.00317        4.21       0.710
  YS02164001           JUNCTION      0.00  1450.35     0  01:35           0        4.18       0.467
  CC-1                 OUTFALL       0.00   683.00     0  00:00           0       0.208       0.000
  CC-2                 OUTFALL       0.00   683.00     0  00:00           0       0.208       0.000
  JK-1                 OUTFALL       0.00  1000.00     0  00:00           0      0.0791       0.000
  JK-2                 OUTFALL       0.00  1000.00     0  00:00           0      0.0791       0.000
  WSC                  OUTFALL       0.00   818.16     0  03:17           0        14.7       0.000
  CC-storage           STORAGE       0.00  3536.91     0  01:37           0        12.2       0.331
  JK-storage           STORAGE       0.00  1128.93     0  01:36           0        4.05       0.396
  XR-storage           STORAGE     200.00   200.00     0  00:00        5.76        6.36     -41.886
  
  
  **********************
  Node Surcharge Summary
  **********************
  
  Surcharging occurs when water rises above the top of the highest conduit.
  ---------------------------------------------------------------------
                                               Max. Height   Min. Depth
                                   Hours       Above Crown    Below Rim
  Node                 Type      Surcharged         Meters       Meters
  ---------------------------------------------------------------------
  WS02006109           JUNCTION        1.86          0.015        1.805
  WS02006228           JUNCTION        1.85          0.013        2.187
  WS02006229           JUNCTION        1.87          0.028        2.422
  WS02006232           JUNCTION        1.91          0.050        1.430
  WS02006235           JUNCTION        1.87          0.056        1.234
  WS02006238           JUNCTION        1.89          0.082        1.348
  WS02006239           JUNCTION        1.87          0.066        1.224
  WS02006240           JUNCTION        1.87          0.081        1.309
  WS02006242           JUNCTION        1.95          0.174        0.646
  WS02006243           JUNCTION        1.89          0.134        0.636
  WS02006245           JUNCTION        1.89          0.146        0.704
  WS02006247           JUNCTION        1.90          0.180        0.580
  WS02006248           JUNCTION        1.88          0.138        0.242
  WS02006249           JUNCTION        1.90          0.390        0.000
  WS02006252           JUNCTION        2.18          1.100        0.000
  WS02006256           JUNCTION        3.09          2.050        0.000
  YS02001580           JUNCTION        0.68          0.450        0.000
  YS02001583           JUNCTION        0.70          0.500        0.000
  YS02001586           JUNCTION        1.01          0.510        0.000
  YS02001590           JUNCTION        1.15          0.750        0.000
  YS02001593           JUNCTION        1.16          0.756        0.084
  YS02001596           JUNCTION        1.46          1.042        0.028
  YS02001600           JUNCTION        1.79          1.190        0.000
  YS02001601           JUNCTION        6.58          1.440        0.000
  YS02001602           JUNCTION        6.56          1.270        0.000
  YS02001605           JUNCTION        6.54          1.180        0.000
  YS02001607           JUNCTION        1.53          0.680        0.000
  YS02001610           JUNCTION        4.40          0.680        0.000
  YS02001613           JUNCTION        1.55          0.700        0.000
  YS02001616           JUNCTION        1.48          0.610        0.000
  YS02001619           JUNCTION        1.47          0.610        0.000
  YS02001622           JUNCTION        1.48          0.620        0.000
  YS02001625           JUNCTION        6.45          0.780        0.000
  YS02001629           JUNCTION        1.46          0.470        0.000
  YS02001633           JUNCTION        6.46          1.014        0.046
  YS02001641           JUNCTION        6.45          1.018        0.082
  YS02001644           JUNCTION        6.44          0.920        0.000
  YS02001647           JUNCTION        6.41          0.800        0.100
  YS02001649           JUNCTION        6.41          1.050        0.000
  YS02001652           JUNCTION        6.40          1.066        0.064
  YS02001655           JUNCTION        1.43          0.798        0.402
  YS02001658           JUNCTION        0.39          0.628        0.672
  YS02001661           JUNCTION        0.02          0.412        0.978
  YS02001745           JUNCTION        0.01          0.713        0.637
  YS02001748           JUNCTION        0.15          0.941        0.249
  YS02001751           JUNCTION        1.29          1.023        0.177
  YS02001754           JUNCTION        6.39          1.054        0.096
  YS02001757           JUNCTION        6.41          1.208        0.002
  YS02001759           JUNCTION        6.40          1.196        0.014
  YS02001762           JUNCTION        6.40          1.150        0.000
  YS02001765           JUNCTION        6.40          1.100        0.000
  YS02001767           JUNCTION        6.40          1.030        0.000
  YS02001770           JUNCTION        6.40          0.920        0.000
  YS02001774           JUNCTION        6.40          1.050        0.000
  YS02001779           JUNCTION        6.39          0.680        0.000
  YS02001783           JUNCTION        0.77          1.004        0.596
  YS02001784           JUNCTION        0.77          0.990        0.500
  YS02001786           JUNCTION        0.75          0.844        0.586
  YS02001788           JUNCTION        0.73          0.750        0.730
  YS02001790           JUNCTION        6.38          0.869        0.288
  YS02001791           JUNCTION        6.39          0.770        1.150
  YS02001793           JUNCTION        6.39          0.967        1.633
  YS02001882           JUNCTION        0.58          0.816        0.014
  YS02001884           JUNCTION        0.59          0.825        0.045
  YS02001887           JUNCTION        0.63          0.849        0.101
  YS02001890           JUNCTION        0.64          0.760        0.000
  YS02001895           JUNCTION        0.57          0.597        0.153
  YS02001898           JUNCTION        0.56          0.619        0.121
  YS02001901           JUNCTION        0.62          0.686        0.184
  YS02001904           JUNCTION        0.61          0.646        0.204
  YS02001907           JUNCTION        0.82          0.950        0.000
  YS02001910           JUNCTION        0.67          1.044        0.056
  YS02001915           JUNCTION        0.58          1.000        0.000
  YS02001918           JUNCTION        0.48          0.810        0.000
  YS02001920           JUNCTION        0.49          1.140        0.000
  YS02001923           JUNCTION        0.04          0.820        0.000
  YS02001926           JUNCTION        0.09          0.900        0.000
  YS02001929           JUNCTION        0.01          0.780        0.000
  YS02006553           JUNCTION        0.83          1.047        0.143
  YS02006556           JUNCTION        0.75          1.079        0.271
  YS02006558           JUNCTION        0.74          1.099        0.301
  YS02006561           JUNCTION        0.52          0.556        0.594
  YS02163301           JUNCTION        6.46          1.030        0.000
  YS02163601           JUNCTION        6.46          1.080        0.000
  YS02164001           JUNCTION        6.45          1.037        0.063
  
  
  *********************
  Node Flooding Summary
  *********************
  
  Flooding refers to all water that overflows a node, whether it ponds or not.
  --------------------------------------------------------------------------
                                                             Total   Maximum
                                 Maximum   Time of Max       Flood    Ponded
                        Hours       Rate    Occurrence      Volume     Depth
  Node                 Flooded       LPS   days hr:min    10^6 ltr    Meters
  --------------------------------------------------------------------------
  WS02006249              0.01      0.29      0  02:17       0.000     0.000
  WS02006252              0.01    245.63      0  00:00       0.000     0.000
  WS02006256              0.02    293.19      0  00:00       0.005     0.000
  YS02001580              0.01     90.91      0  01:34       0.000     0.000
  YS02001583              0.01    179.72      0  01:34       0.000     0.000
  YS02001586              0.55    393.84      0  01:42       0.398     0.000
  YS02001590              0.01    111.16      0  01:32       0.000     0.000
  YS02001600              0.01      4.57      0  01:32       0.000     0.000
  YS02001601              0.85   1163.93      0  01:40       1.442     0.000
  YS02001602              0.91     62.02      0  01:39       0.187     0.000
  YS02001605              0.01      7.01      0  01:33       0.000     0.000
  YS02001607              0.01     42.61      0  01:33       0.000     0.000
  YS02001610              0.66    662.80      0  01:42       0.714     0.000
  YS02001613              0.01      2.65      0  01:34       0.000     0.000
  YS02001616              0.01     93.27      0  01:34       0.000     0.000
  YS02001619              0.01    154.97      0  01:34       0.000     0.000
  YS02001622              0.01    320.61      0  01:34       0.001     0.000
  YS02001625              0.86   1276.01      0  01:42       1.580     0.000
  YS02001629              0.11    311.66      0  01:34       0.063     0.000
  YS02001644              0.19    848.60      0  01:38       0.286     0.000
  YS02001649              0.01    152.79      0  01:37       0.001     0.000
  YS02001762              0.01     36.00      0  01:37       0.000     0.000
  YS02001765              0.01     31.07      0  01:36       0.000     0.000
  YS02001767              0.01    104.19      0  01:36       0.000     0.000
  YS02001770              0.01    341.88      0  01:36       0.002     0.000
  YS02001774              0.01     36.99      0  01:36       0.000     0.000
  YS02001779              0.16    515.78      0  01:36       0.128     0.000
  YS02001890              0.15    266.68      0  01:38       0.079     0.000
  YS02001907              0.40   1823.95      0  01:39       1.284     0.000
  YS02001915              0.01     11.03      0  01:36       0.000     0.000
  YS02001918              0.01    243.62      0  01:35       0.004     0.000
  YS02001920              0.01    212.04      0  01:35       0.000     0.000
  YS02001923              0.01    114.55      0  01:36       0.000     0.000
  YS02001926              0.01    232.28      0  01:36       0.003     0.000
  YS02001929              0.01    799.08      0  01:36       0.005     0.000
  YS02163301              0.01      0.42      0  02:08       0.000     0.000
  YS02163601              0.01     13.97      0  02:08       0.000     0.000
  CC-storage              2.72   1088.32      0  02:10       2.185     0.000
  JK-storage              6.38   1059.66      0  01:37       3.563     0.000
  
  
  **********************
  Storage Volume Summary
  **********************
  
  ------------------------------------------------------------------------------------------------
                         Average    Avg   Evap  Exfil     Maximum    Max    Time of Max    Maximum
                          Volume   Pcnt   Pcnt   Pcnt      Volume   Pcnt     Occurrence    Outflow
  Storage Unit           1000 m³   Full   Loss   Loss     1000 m³   Full    days hr:min        LPS
  ------------------------------------------------------------------------------------------------
  CC-storage               5.221   81.5    0.0    0.0       6.410  100.0       0  02:10    1783.53
  JK-storage               0.237   81.3    0.0    0.0       0.291  100.0       0  01:37    2300.00
  XR-storage               0.037    2.6    0.0    0.0       0.600   41.7       0  00:00     380.00
  
  
  ***********************
  Outfall Loading Summary
  ***********************
  
  -----------------------------------------------------------
                         Flow       Avg       Max       Total
                         Freq      Flow      Flow      Volume
  Outfall Node           Pcnt       LPS       LPS    10^6 ltr
  -----------------------------------------------------------
  CC-1                   1.35    683.00    683.00       0.208
  CC-2                   1.35    683.00    683.00       0.208
  JK-1                   1.26    347.46   1000.00       0.079
  JK-2                   1.26    347.46   1000.00       0.079
  WSC                   99.92    570.87    818.16      14.737
  -----------------------------------------------------------
  System                21.03   2631.80   3366.35      15.312
  
  
  ********************
  Link Flow Summary
  ********************
  
  -----------------------------------------------------------------------------
                                 Maximum  Time of Max   Maximum    Max/    Max/
                                  |Flow|   Occurrence   |Veloc|    Full    Full
  Link                 Type          LPS  days hr:min     m/sec    Flow   Depth
  -----------------------------------------------------------------------------
  1                    CONDUIT    818.16     0  03:17      3.15    0.28    0.37
  WS02001211WS02001212 CONDUIT    390.84     0  03:41      0.78    0.30    0.64
  WS02001212WS02001213 CONDUIT    392.60     0  03:40      1.32    0.61    0.45
  WS02001213WS02003059 CONDUIT    395.64     0  03:40      0.85    0.65    0.75
  WS02003059WS02003060 CONDUIT    399.93     0  03:40      0.95    0.26    0.63
  WS02003060WS02003069 CONDUIT    816.03     0  03:15      1.80    0.32    0.42
  WS02003066WSF200     CONDUIT    411.86     0  03:07      2.69    0.07    0.19
  WS02003067WS02003066 CONDUIT    411.86     0  03:07      1.04    0.13    0.38
  WS02003069WS02003072 CONDUIT    816.35     0  03:16      1.55    0.39    0.47
  WS02003072WS02003073 CONDUIT    816.34     0  03:16      1.64    1.76    0.45
  WS02004138WS02004139 CONDUIT    395.20     0  00:00      3.65    0.08    0.43
  WS02004139WS02001211 CONDUIT    381.78     0  03:38      0.91    0.48    0.59
  WS02004401WS02004402 CONDUIT    412.03     0  02:05      0.99    0.49    0.77
  WS02004402WS02004403 CONDUIT    412.01     0  01:58      0.99    0.59    0.79
  WS02004403WS02004404 CONDUIT    411.97     0  02:06      0.93    0.30    0.84
  WS02004404WS02004405 CONDUIT    412.14     0  03:04      1.10    4.04    0.88
  WS02004405WS02004406 CONDUIT    412.22     0  02:07      1.03    0.81    0.88
  WS02004406WS02004407 CONDUIT    412.02     0  03:05      0.89    0.18    0.57
  WS02004407WS02004409 CONDUIT    411.97     0  02:08      1.42    0.15    0.42
  WS02004409WS02004410 CONDUIT    411.95     0  03:05      0.92    0.53    0.58
  WS02004410WS02004411 CONDUIT    411.93     0  03:13      0.85    0.56    0.60
  WS02004411WS02004412 CONDUIT    411.91     0  03:13      0.81    0.59    0.61
  WS02004412WS02004413 CONDUIT    411.93     0  03:06      0.70    0.28    0.70
  WS02004413WS02003067 CONDUIT    411.86     0  03:14      0.96    0.18    0.53
  WS02006109WS02006110 CONDUIT    411.70     0  03:11      0.84    0.79    0.94
  WS02006110WS02006113 CONDUIT    411.94     0  02:05      1.03    0.37    0.75
  WS02006111WS02006112 CONDUIT    413.63     0  01:57      1.83    0.20    0.65
  WS02006112WS02006115 CONDUIT    412.47     0  02:05      0.71    0.24    0.78
  WS02006113WS02006111 CONDUIT    423.67     0  03:09      2.25    0.51    0.40
  WS02006115WS02006116 CONDUIT    412.20     0  02:05      0.98    0.53    0.66
  WS02006116WS02004401 CONDUIT    412.12     0  02:05      1.00    0.57    0.74
  WS02006228WS02006109 CONDUIT    410.46     0  03:11      1.06    1.79    1.00
  WS02006229WS02006228 CONDUIT    410.46     0  03:11      1.13    1.36    1.00
  WS02006230WS02006229 CONDUIT    410.46     0  03:11      1.22    9.13    1.00
  WS02006231WS02006230 CONDUIT    400.31     0  02:17      1.37    6.07    0.77
  WS02006232WS02006231 CONDUIT    400.47     0  02:17      1.08    0.84    0.92
  WS02006234WS02006232 CONDUIT    400.45     0  02:17      1.40    0.81    1.00
  WS02006235WS02006234 CONDUIT    401.82     0  02:17      1.29    4.24    0.99
  WS02006238WS02006235 CONDUIT    406.31     0  02:12      1.49    0.91    1.00
  WS02006239WS02006238 CONDUIT    401.50     0  02:17      1.20    1.28    1.00
  WS02006240WS02006239 CONDUIT    401.03     0  02:17      1.32    1.26    1.00
  WS02006242WS02006240 CONDUIT    400.98     0  02:17      1.18    1.59    1.00
  WS02006243WS02006242 CONDUIT    401.72     0  01:38      1.43    0.86    1.00
  WS02006245WS02006243 CONDUIT    402.25     0  02:17      1.45    1.19    1.00
  WS02006247WS02006245 CONDUIT    401.89     0  02:14      1.43    3.19    1.00
  WS02006248WS02006247 CONDUIT    400.87     0  02:15      1.42    0.87    1.00
  WS02006249WS02006248 CONDUIT    404.90     0  02:17      1.37    2.22    1.00
  WS02006251WS02006249 CONDUIT    458.97     0  00:00      1.99    1.32    1.00
  WS02006252WS02006251 CONDUIT    401.24     0  01:37     24.55    1.47    1.00
  WS02006256WS02006235 CONDUIT    288.91     0  00:00      4.23    3.06    1.00
  WSF200WS02003060     CONDUIT    411.87     0  03:07      1.43    0.09    0.30
  YS02001580YS02001583 CONDUIT    158.86     0  01:33      0.87    0.62    1.00
  YS02001583YS02001586 CONDUIT    199.54     0  01:34      0.89    0.30    1.00
  YS02001586YS02001590 CONDUIT    317.94     0  01:38      1.28    0.56    1.00
  YS02001590YS02001593 CONDUIT    318.13     0  01:38      1.13    2.00    1.00
  YS02001593YS02001596 CONDUIT    317.97     0  01:38      1.62    0.50    1.00
  YS02001596YS02001600 CONDUIT    318.04     0  01:40      1.12    0.62    1.00
  YS02001600YS02001601 CONDUIT    317.94     0  01:38      1.12    0.55    1.00
  YS02001601YS02001602 CONDUIT    570.85     0  01:33      2.02    2.06    1.00
  YS02001602YS02001605 CONDUIT    570.87     0  01:33      2.02   12.08    1.00
  YS02001605YS02001607 CONDUIT    570.87     0  01:33      2.02    3.13    1.00
  YS02001607YS02001610 CONDUIT    553.37     0  01:33      0.70    0.53    1.00
  YS02001610YS02001613 CONDUIT    560.94     0  01:33      0.71    0.65    1.00
  YS02001613YS02001616 CONDUIT    579.63     0  01:33      0.74    0.50    1.00
  YS02001616YS02001619 CONDUIT    523.51     0  01:34      0.68    0.91    1.00
  YS02001619YS02001622 CONDUIT   1001.44     0  01:34      1.28    1.48    1.00
  YS02001622YS02001625 CONDUIT    951.89     0  01:34      1.21    0.51    1.00
  YS02001625YS02001629 CONDUIT    950.84     0  01:34      1.22    0.45    1.00
  YS02001629YS02163301 CONDUIT    910.10     0  01:34      1.16    1.12    1.00
  YS02001633YS02163601 CONDUIT   1451.31     0  01:35      1.85    1.52    1.00
  YS02001641YS02001644 CONDUIT   1450.50     0  01:35      1.85    4.69    1.00
  YS02001644YS02001647 CONDUIT   1954.61     0  01:35      2.49    1.15    1.00
  YS02001647YS02001649 CONDUIT   1941.81     0  01:35      2.47    1.03    1.00
  YS02001649YS02001757 CONDUIT   2236.35     0  01:36      2.85    1.36    1.00
  YS02001652YS02001649 CONDUIT   1005.72     0  01:38      1.28    0.50    1.00
  YS02001655YS02001652 CONDUIT   1004.18     0  01:38      1.50    0.49    1.00
  YS02001658YS02001655 CONDUIT    999.16     0  01:38      2.03    0.42    1.00
  YS02001661YS02001658 CONDUIT    994.69     0  01:38      2.44    0.39    1.00
  YS02001664YS02001661 CONDUIT    985.48     0  01:38      2.55    0.31    0.96
  YS02001745YS02001748 CONDUIT    630.12     0  01:37      2.39    0.24    1.00
  YS02001748YS02001751 CONDUIT    633.05     0  01:37      1.85    0.32    1.00
  YS02001751YS02001754 CONDUIT    636.63     0  01:37      1.53    0.31    1.00
  YS02001754YS02001757 CONDUIT    642.65     0  01:37      0.82    0.26    1.00
  YS02001757CaochengTiaoxuchi CONDUIT   3536.91     0  01:37      4.57    1.53    1.00
  YS02001759YS02001757 CONDUIT   1533.57     0  01:37      1.95    1.09    1.00
  YS02001762YS02001759 CONDUIT    825.31     0  01:37      1.05    0.95    1.00
  YS02001765YS02001762 CONDUIT    816.35     0  01:37      1.04    0.77    1.00
  YS02001767YS02001765 CONDUIT    813.48     0  01:37      1.04    1.02    1.00
  YS02001770YS02001767 CONDUIT    814.11     0  01:37      1.04    3.22    1.00
  YS02001774YS02001770 CONDUIT    566.26     0  01:36      0.72    0.36    1.00
  YS02001779YS02001774 CONDUIT    565.27     0  01:36      0.73    0.28    1.00
  YS02001783YS02001784 CONDUIT   1167.34     0  01:37      2.32    1.61    1.00
  YS02001784YS02001785 CONDUIT   1170.09     0  01:37      2.33    2.72    1.00
  YS02001786YS02001788 CONDUIT   1172.72     0  01:37      2.48    2.26    1.00
  YS02001788YS02001790 CONDUIT   1176.34     0  01:36      2.71    0.87    1.00
  YS02001790YS02001791 CONDUIT   1227.24     0  01:36      3.32    1.34    1.00
  YS02001791YS02001793 CONDUIT   1123.42     0  01:36      5.97    0.48    1.00
  YS02001793JiankangQianchi CONDUIT   1128.93     0  01:36      1.82    0.09    1.00
  YS02001882YS02001884 CONDUIT     96.19     0  01:34      0.18    0.11    1.00
  YS02001884YS02001887 CONDUIT    138.05     0  01:34      0.18    0.18    1.00
  YS02001887YS02001890 CONDUIT    794.39     0  01:38      1.01    1.36    1.00
  YS02001890YS02001895 CONDUIT    587.15     0  01:35      0.75    0.27    1.00
  YS02001895YS02001898 CONDUIT    590.66     0  01:35      0.75    1.02    1.00
  YS02001898YS02001901 CONDUIT    595.45     0  01:35      0.76    0.38    1.00
  YS02001901YS02001904 CONDUIT    596.98     0  01:35      0.76    0.93    1.00
  YS02001904YS02001907 CONDUIT    598.11     0  01:35      0.76    0.21    1.00
  YS02001907YS02006553 CONDUIT    673.42     0  02:02      0.75    0.79    1.00
  YS02001910YS02001907 CONDUIT   1293.29     0  01:39      1.65    0.73    1.00
  YS02001915YS02001910 CONDUIT   1293.15     0  01:39      1.65    0.64    1.00
  YS02001918YS02001915 CONDUIT    720.23     0  01:35      0.92    0.40    1.00
  YS02001920YS02001918 CONDUIT    695.02     0  01:35      0.88    0.67    1.00
  YS02001923YS02001920 CONDUIT    711.59     0  01:35      0.98    0.32    1.00
  YS02001926YS02001923 CONDUIT    981.42     0  01:36      1.41    1.40    1.00
  YS02001929YS02001926 CONDUIT    836.94     0  01:36      1.25    0.40    1.00
  YS02006553YS02006556 CONDUIT    673.85     0  02:02      0.86    0.58    1.00
  YS02006556YS02006558 CONDUIT    674.18     0  02:02      0.86    0.53    1.00
  YS02006558YS02006561 CONDUIT   1176.09     0  01:35      4.16    2.60    1.00
  YS02006561YS02001783 CONDUIT   1166.13     0  01:37      2.32    0.60    1.00
  YS02163301YS02001633 CONDUIT    910.85     0  01:34      1.16    0.86    1.00
  YS02163601YS02164001 CONDUIT   1450.35     0  01:35      1.85    1.29    1.00
  YS02164001YS02001641 CONDUIT   1450.79     0  01:35      1.85    1.98    1.00
  CC-R1                PUMP       683.00     0  00:00              1.00
  CC-R2                PUMP       683.00     0  00:00              1.00
  CC-S1                PUMP       200.00     0  00:00              1.00
  CC-S2                PUMP       200.00     0  00:00              1.00
  JK-R1                PUMP      1000.00     0  00:00              1.00
  JK-R2                PUMP      1000.00     0  00:00              1.00
  JK-S                 PUMP       300.00     0  00:00              1.00
  XR-1                 PUMP        95.00     0  00:00              1.00
  XR-2                 PUMP        95.00     0  00:00              1.00
  XR-3                 PUMP        95.00     0  00:00              1.00
  XR-4                 PUMP        95.00     0  00:00              1.00
  
  
  ***************************
  Flow Classification Summary
  ***************************
  
  -------------------------------------------------------------------------------------
                      Adjusted    ---------- Fraction of Time in Flow Class ---------- 
                       /Actual         Up    Down  Sub   Sup   Up    Down  Norm  Inlet 
  Conduit               Length    Dry  Dry   Dry   Crit  Crit  Crit  Crit  Ltd   Ctrl  
  -------------------------------------------------------------------------------------
  1                       1.00   0.00  0.00  0.00  0.00  1.00  0.00  0.00  0.18  0.00
  WS02001211WS02001212    1.00   0.00  0.00  0.00  1.00  0.00  0.00  0.00  0.00  0.00
  WS02001212WS02001213    1.00   0.00  0.00  0.00  0.37  0.00  0.63  0.00  0.00  0.00
  WS02001213WS02003059    1.00   0.00  0.00  0.00  0.99  0.00  0.00  0.00  0.00  0.00
  WS02003059WS02003060    1.00   0.00  0.00  0.00  1.00  0.00  0.00  0.00  0.00  0.00
  WS02003060WS02003069    1.00   0.00  0.00  0.00  0.99  0.01  0.00  0.00  0.00  0.00
  WS02003066WSF200        1.00   0.02  0.10  0.00  0.00  0.88  0.00  0.00  0.87  0.00
  WS02003067WS02003066    1.00   0.10  0.02  0.00  0.89  0.00  0.00  0.00  0.00  0.00
  WS02003069WS02003072    1.00   0.00  0.00  0.00  0.99  0.01  0.00  0.00  0.00  0.00
  WS02003072WS02003073    1.00   0.00  0.00  0.00  0.00  0.00  0.00  1.00  0.00  0.00
  WS02004138WS02004139    1.00   0.00  0.00  0.00  0.99  0.01  0.00  0.00  1.00  0.00
  WS02004139WS02001211    1.00   0.00  0.00  0.00  1.00  0.00  0.00  0.00  0.00  0.00
  WS02004401WS02004402    1.00   0.02  0.00  0.00  0.98  0.00  0.00  0.00  0.00  0.00
  WS02004402WS02004403    1.00   0.02  0.00  0.00  0.98  0.00  0.00  0.00  0.00  0.00
  WS02004403WS02004404    1.00   0.00  0.03  0.00  0.97  0.00  0.00  0.00  0.00  0.00
  WS02004404WS02004405    1.00   0.00  0.00  0.00  1.00  0.00  0.00  0.00  0.00  0.00
  WS02004405WS02004406    1.00   0.00  0.00  0.00  1.00  0.00  0.00  0.00  0.00  0.00
  WS02004406WS02004407    1.00   0.00  0.05  0.00  0.95  0.00  0.00  0.00  0.00  0.00
  WS02004407WS02004409    1.00   0.05  0.00  0.00  0.94  0.01  0.00  0.00  0.94  0.00
  WS02004409WS02004410    1.00   0.05  0.00  0.00  0.95  0.00  0.00  0.00  0.02  0.00
  WS02004410WS02004411    1.00   0.05  0.00  0.00  0.95  0.00  0.00  0.00  0.00  0.00
  WS02004411WS02004412    1.00   0.05  0.00  0.00  0.95  0.00  0.00  0.00  0.00  0.00
  WS02004412WS02004413    1.00   0.05  0.00  0.00  0.94  0.00  0.00  0.00  0.01  0.00
  WS02004413WS02003067    1.00   0.06  0.04  0.00  0.00  0.00  0.90  0.00  0.00  0.00
  WS02006109WS02006110    1.00   0.00  0.01  0.00  0.98  0.00  0.01  0.00  0.00  0.00
  WS02006110WS02006113    1.00   0.01  0.01  0.00  0.98  0.00  0.00  0.00  0.00  0.00
  WS02006111WS02006112    1.00   0.02  0.00  0.00  0.98  0.00  0.00  0.00  0.98  0.00
  WS02006112WS02006115    1.00   0.02  0.00  0.00  0.97  0.00  0.00  0.00  0.00  0.00
  WS02006113WS02006111    1.00   0.02  0.00  0.00  0.00  0.98  0.00  0.00  0.11  0.00
  WS02006115WS02006116    1.00   0.02  0.00  0.00  0.97  0.00  0.00  0.01  0.00  0.00
  WS02006116WS02004401    1.00   0.02  0.00  0.00  0.98  0.00  0.00  0.00  0.00  0.00
  WS02006228WS02006109    1.00   0.00  0.00  0.00  1.00  0.00  0.00  0.00  0.00  0.00
  WS02006229WS02006228    1.00   0.00  0.00  0.00  0.99  0.00  0.00  0.01  0.00  0.00
  WS02006230WS02006229    1.00   0.00  0.00  0.00  0.99  0.00  0.00  0.01  0.00  0.00
  WS02006231WS02006230    1.00   0.00  0.00  0.00  0.25  0.00  0.75  0.00  0.00  0.00
  WS02006232WS02006231    1.00   0.00  0.00  0.00  0.99  0.00  0.01  0.00  0.00  0.00
  WS02006234WS02006232    1.00   0.00  0.00  0.00  1.00  0.00  0.00  0.00  0.52  0.00
  WS02006235WS02006234    1.00   0.00  0.00  0.00  0.44  0.00  0.56  0.00  0.00  0.00
  WS02006238WS02006235    1.00   0.00  0.00  0.00  1.00  0.00  0.00  0.00  0.00  0.00
  WS02006239WS02006238    1.00   0.00  0.00  0.00  1.00  0.00  0.00  0.00  0.61  0.00
  WS02006240WS02006239    1.00   0.00  0.00  0.00  0.35  0.00  0.00  0.65  0.01  0.00
  WS02006242WS02006240    1.00   0.00  0.00  0.00  0.99  0.00  0.00  0.00  0.00  0.00
  WS02006243WS02006242    1.00   0.00  0.00  0.00  0.99  0.00  0.00  0.01  0.70  0.00
  WS02006245WS02006243    1.00   0.00  0.00  0.00  0.40  0.00  0.00  0.59  0.00  0.00
  WS02006247WS02006245    1.00   0.00  0.00  0.00  0.99  0.00  0.00  0.01  0.00  0.00
  WS02006248WS02006247    1.00   0.00  0.00  0.00  0.99  0.00  0.00  0.01  0.12  0.00
  WS02006249WS02006248    1.00   0.00  0.00  0.00  0.30  0.00  0.70  0.00  0.00  0.00
  WS02006251WS02006249    1.00   0.00  0.00  0.00  1.00  0.00  0.00  0.00  0.71  0.00
  WS02006252WS02006251    1.00   0.00  0.73  0.00  0.00  0.00  0.27  0.00  0.00  0.00
  WS02006256WS02006235    1.00   0.00  0.00  0.00  1.00  0.00  0.00  0.00  0.00  0.00
  WSF200WS02003060        1.00   0.00  0.02  0.00  0.98  0.00  0.00  0.00  0.65  0.00
  YS02001580YS02001583    1.00   0.19  0.57  0.00  0.23  0.00  0.00  0.00  0.67  0.00
  YS02001583YS02001586    1.00   0.48  0.24  0.00  0.28  0.00  0.00  0.00  0.67  0.00
  YS02001586YS02001590    1.00   0.13  0.00  0.00  0.40  0.04  0.00  0.43  0.28  0.00
  YS02001590YS02001593    1.00   0.13  0.01  0.00  0.19  0.00  0.68  0.00  0.00  0.00
  YS02001593YS02001596    1.00   0.13  0.00  0.00  0.81  0.00  0.00  0.05  0.62  0.00
  YS02001596YS02001600    1.00   0.13  0.00  0.00  0.83  0.00  0.00  0.04  0.01  0.00
  YS02001600YS02001601    1.00   0.13  0.01  0.00  0.86  0.00  0.00  0.00  0.02  0.00
  YS02001601YS02001602    1.00   0.13  0.01  0.00  0.87  0.00  0.00  0.00  0.00  0.00
  YS02001602YS02001605    1.00   0.13  0.00  0.00  0.87  0.00  0.00  0.00  0.00  0.00
  YS02001605YS02001607    1.00   0.13  0.00  0.00  0.87  0.00  0.00  0.00  0.00  0.00
  YS02001607YS02001610    1.00   0.13  0.01  0.00  0.86  0.00  0.00  0.00  0.01  0.00
  YS02001610YS02001613    1.00   0.13  0.00  0.00  0.87  0.00  0.00  0.00  0.00  0.00
  YS02001613YS02001616    1.00   0.13  0.00  0.00  0.87  0.00  0.00  0.00  0.00  0.00
  YS02001616YS02001619    1.00   0.13  0.00  0.00  0.87  0.00  0.00  0.00  0.00  0.00
  YS02001619YS02001622    1.00   0.13  0.00  0.00  0.87  0.00  0.00  0.00  0.00  0.00
  YS02001622YS02001625    1.00   0.13  0.00  0.00  0.87  0.00  0.00  0.00  0.03  0.00
  YS02001625YS02001629    1.00   0.13  0.04  0.00  0.81  0.00  0.02  0.00  0.00  0.00
  YS02001629YS02163301    1.00   0.14  0.01  0.00  0.85  0.00  0.00  0.00  0.00  0.00
  YS02001633YS02163601    1.00   0.00  0.01  0.00  0.99  0.00  0.00  0.00  0.14  0.00
  YS02001641YS02001644    1.00   0.00  0.01  0.00  0.99  0.00  0.00  0.00  0.00  0.00
  YS02001644YS02001647    1.00   0.00  0.16  0.00  0.84  0.00  0.00  0.00  0.00  0.00
  YS02001647YS02001649    1.00   0.00  0.16  0.00  0.84  0.00  0.00  0.00  0.01  0.00
  YS02001649YS02001757    1.00   0.00  0.00  0.00  1.00  0.00  0.00  0.00  0.17  0.00
  YS02001652YS02001649    1.00   0.00  0.00  0.00  0.97  0.03  0.00  0.00  0.14  0.00
  YS02001655YS02001652    1.00   0.00  0.00  0.00  0.81  0.00  0.00  0.19  0.00  0.00
  YS02001658YS02001655    1.00   0.00  0.14  0.00  0.80  0.06  0.00  0.00  0.00  0.00
  YS02001661YS02001658    1.00   0.14  0.00  0.00  0.80  0.06  0.00  0.00  0.00  0.00
  YS02001664YS02001661    1.00   0.13  0.00  0.00  0.84  0.04  0.00  0.00  0.82  0.00
  YS02001745YS02001748    1.00   0.00  0.00  0.00  0.80  0.00  0.00  0.20  0.00  0.00
  YS02001748YS02001751    1.00   0.00  0.00  0.00  0.93  0.07  0.00  0.00  0.12  0.00
  YS02001751YS02001754    1.00   0.00  0.00  0.00  0.81  0.00  0.00  0.19  0.00  0.00
  YS02001754YS02001757    1.00   0.00  0.00  0.00  1.00  0.00  0.00  0.00  0.19  0.00
  YS02001757CaochengTiaoxuchi    1.00   0.00  0.00  0.00  0.98  0.02  0.00  0.00  0.18  0.00
  YS02001759YS02001757    1.00   0.00  0.00  0.00  0.98  0.02  0.00  0.00  0.06  0.00
  YS02001762YS02001759    1.00   0.00  0.00  0.00  1.00  0.00  0.00  0.00  0.02  0.00
  YS02001765YS02001762    1.00   0.00  0.00  0.00  1.00  0.00  0.00  0.00  0.13  0.00
  YS02001767YS02001765    1.00   0.00  0.00  0.00  1.00  0.00  0.00  0.00  0.00  0.00
  YS02001770YS02001767    1.00   0.00  0.00  0.00  1.00  0.00  0.00  0.00  0.00  0.00
  YS02001774YS02001770    1.00   0.00  0.13  0.00  0.87  0.00  0.00  0.00  0.02  0.00
  YS02001779YS02001774    1.00   0.00  0.00  0.00  1.00  0.00  0.00  0.00  0.16  0.00
  YS02001783YS02001784    1.00   0.00  0.16  0.00  0.84  0.00  0.00  0.00  0.00  0.00
  YS02001784YS02001785    1.00   0.00  0.00  0.00  1.00  0.00  0.00  0.00  0.15  0.00
  YS02001786YS02001788    1.00   0.00  0.00  0.00  0.97  0.03  0.00  0.00  0.00  0.00
  YS02001788YS02001790    1.00   0.00  0.00  0.00  0.97  0.03  0.00  0.00  0.17  0.00
  YS02001790YS02001791    1.00   0.00  0.00  0.00  0.81  0.19  0.00  0.00  0.02  0.00
  YS02001791YS02001793    1.00   0.00  0.00  0.00  0.80  0.20  0.00  0.00  0.00  0.00
  YS02001793JiankangQianchi    1.00   0.00  0.00  0.00  0.93  0.07  0.00  0.00  0.17  0.00
  YS02001882YS02001884    1.00   0.14  0.01  0.00  0.85  0.00  0.00  0.00  0.00  0.00
  YS02001884YS02001887    1.00   0.06  0.05  0.00  0.89  0.00  0.00  0.00  0.00  0.00
  YS02001887YS02001890    1.00   0.00  0.00  0.00  0.97  0.00  0.03  0.00  0.00  0.00
  YS02001890YS02001895    1.00   0.00  0.15  0.00  0.85  0.00  0.00  0.00  0.00  0.00
  YS02001895YS02001898    1.00   0.15  0.00  0.00  0.83  0.00  0.01  0.00  0.00  0.00
  YS02001898YS02001901    1.00   0.16  0.00  0.00  0.84  0.00  0.00  0.00  0.01  0.00
  YS02001901YS02001904    1.00   0.16  0.00  0.00  0.84  0.00  0.00  0.00  0.00  0.00
  YS02001904YS02001907    1.00   0.00  0.15  0.00  0.85  0.00  0.00  0.00  0.00  0.00
  YS02001907YS02006553    1.00   0.00  0.02  0.00  0.98  0.00  0.00  0.00  0.00  0.00
  YS02001910YS02001907    1.00   0.00  0.00  0.00  0.97  0.00  0.00  0.03  0.12  0.00
  YS02001915YS02001910    1.00   0.00  0.00  0.00  0.97  0.03  0.00  0.00  0.13  0.00
  YS02001918YS02001915    1.00   0.00  0.01  0.00  0.98  0.02  0.00  0.00  0.74  0.00
  YS02001920YS02001918    1.00   0.00  0.01  0.00  0.99  0.00  0.00  0.00  0.00  0.00
  YS02001923YS02001920    1.00   0.00  0.00  0.00  1.00  0.00  0.00  0.00  0.91  0.00
  YS02001926YS02001923    1.00   0.00  0.07  0.00  0.07  0.00  0.85  0.00  0.00  0.00
  YS02001929YS02001926    1.00   0.00  0.13  0.00  0.87  0.00  0.00  0.00  0.81  0.00
  YS02006553YS02006556    1.00   0.01  0.00  0.00  0.99  0.00  0.00  0.00  0.03  0.00
  YS02006556YS02006558    1.00   0.00  0.00  0.00  1.00  0.00  0.00  0.00  0.00  0.00
  YS02006558YS02006561    1.00   0.16  0.00  0.00  0.09  0.75  0.00  0.00  0.18  0.00
  YS02006561YS02001783    1.00   0.16  0.00  0.00  0.81  0.03  0.00  0.00  0.72  0.00
  YS02163301YS02001633    1.00   0.00  0.14  0.00  0.86  0.00  0.00  0.00  0.00  0.00
  YS02163601YS02164001    1.00   0.00  0.08  0.00  0.92  0.00  0.00  0.00  0.00  0.00
  YS02164001YS02001641    1.00   0.01  0.07  0.00  0.92  0.00  0.00  0.00  0.05  0.00
  
  
  *************************
  Conduit Surcharge Summary
  *************************
  
  ----------------------------------------------------------------------------
                                                           Hours        Hours 
                         --------- Hours Full --------   Above Full   Capacity
  Conduit                Both Ends  Upstream  Dnstream   Normal Flow   Limited
  ----------------------------------------------------------------------------
  WS02003072WS02003073        0.01      0.01      0.01      2.39         0.01
  WS02004404WS02004405        0.01      0.01      0.01      2.24         0.01
  WS02006109WS02006110        0.01      0.01      1.91      0.01         0.01
  WS02006110WS02006113        0.01      0.01      1.89      0.01         0.01
  WS02006111WS02006112        0.01      0.01      1.96      0.01         0.01
  WS02006228WS02006109        1.86      1.91      1.86      2.07         1.86
  WS02006229WS02006228        1.85      1.87      1.85      2.01         1.85
  WS02006230WS02006229        1.96      1.98      1.96      2.51         1.96
  WS02006231WS02006230        0.01      0.01      0.01      2.37         0.01
  WS02006232WS02006231        0.01      0.01      1.91      0.01         0.01
  WS02006234WS02006232        1.83      1.83      1.91      0.01         0.01
  WS02006235WS02006234        0.01      0.01      1.87      2.28         0.01
  WS02006238WS02006235        1.88      1.88      1.93      0.01         0.01
  WS02006239WS02006238        1.89      1.91      1.89      2.04         1.89
  WS02006240WS02006239        1.87      1.88      1.87      2.07         1.87
  WS02006242WS02006240        1.87      1.87      1.97      2.11         0.01
  WS02006243WS02006242        1.89      1.89      1.95      0.01         0.01
  WS02006245WS02006243        1.89      1.89      1.89      2.11         1.88
  WS02006247WS02006245        1.89      1.91      1.89      2.17         1.89
  WS02006248WS02006247        1.89      1.89      1.90      0.01         0.01
  WS02006249WS02006248        1.88      1.88      1.90      2.17         0.01
  WS02006251WS02006249        1.90      1.90      1.90      2.15         1.90
  WS02006252WS02006251        2.18      2.18      2.18      2.18         0.01
  WS02006256WS02006235        2.32      2.33      3.08      0.02         0.01
  YS02001580YS02001583        0.68      0.68      0.75      0.01         0.01
  YS02001583YS02001586        0.70      0.70      1.01      0.01         0.01
  YS02001586YS02001590        1.02      1.02      1.15      0.01         0.01
  YS02001590YS02001593        1.16      1.16      1.18      1.09         0.01
  YS02001593YS02001596        1.17      1.17      1.46      0.01         0.01
  YS02001596YS02001600        1.55      1.55      1.79      0.01         0.01
  YS02001600YS02001601        6.53      6.53      6.58      0.01         0.01
  YS02001601YS02001602        6.56      6.56      6.59      1.26         0.01
  YS02001602YS02001605        6.54      6.54      6.56      2.23         0.08
  YS02001605YS02001607        6.52      6.54      6.52      1.63         1.56
  YS02001607YS02001610        1.53      1.53      4.39      0.01         0.01
  YS02001610YS02001613        1.55      1.55      4.39      0.01         0.01
  YS02001613YS02001616        1.48      1.48      1.55      0.01         0.01
  YS02001616YS02001619        1.47      1.47      1.48      0.01         0.01
  YS02001619YS02001622        1.47      1.47      1.48      0.75         0.70
  YS02001622YS02001625        1.48      1.48      6.45      0.01         0.01
  YS02001625YS02001629        1.46      1.46      6.45      0.01         0.01
  YS02001629YS02163301        6.45      6.45      6.46      0.02         0.03
  YS02001633YS02163601        6.46      6.46      6.46      0.05         0.06
  YS02001641YS02001644        6.44      6.45      6.44      1.62         1.53
  YS02001644YS02001647        6.41      6.41      6.44      0.04         0.01
  YS02001647YS02001649        6.41      6.41      6.41      0.01         0.01
  YS02001649YS02001757        6.41      6.41      6.41      0.05         0.03
  YS02001652YS02001649        6.40      6.40      6.41      0.01         0.01
  YS02001655YS02001652        1.43      1.43      6.40      0.01         0.01
  YS02001658YS02001655        0.39      0.39      1.43      0.01         0.01
  YS02001661YS02001658        0.02      0.02      0.39      0.01         0.01
  YS02001664YS02001661        0.01      0.01      0.05      0.01         0.01
  YS02001745YS02001748        0.01      0.01      0.15      0.01         0.01
  YS02001748YS02001751        0.36      0.36      1.29      0.01         0.01
  YS02001751YS02001754        1.28      1.28      6.39      0.01         0.01
  YS02001754YS02001757        6.40      6.40      6.41      0.01         0.01
  YS02001757CaochengTiaoxuchi        6.35      6.41      6.35      0.32         0.24
  YS02001759YS02001757        6.40      6.40      6.41      0.01         0.03
  YS02001762YS02001759        6.40      6.40      6.40      0.01         0.02
  YS02001765YS02001762        6.40      6.40      6.40      0.01         0.01
  YS02001767YS02001765        6.40      6.40      6.40      0.01         0.02
  YS02001770YS02001767        6.40      6.40      6.40      0.56         0.61
  YS02001774YS02001770        6.40      6.40      6.40      0.01         0.01
  YS02001779YS02001774        6.39      6.39      6.40      0.01         0.01
  YS02001783YS02001784        0.76      0.77      0.77      0.71         0.67
  YS02001784YS02001785        0.75      0.77      0.75      0.99         0.75
  YS02001786YS02001788        0.73      0.75      0.73      0.85         0.73
  YS02001788YS02001790        0.73      0.73      6.38      0.01         0.01
  YS02001790YS02001791        6.38      6.38      6.39      0.46         0.43
  YS02001791YS02001793        6.39      6.39      6.40      0.01         0.01
  YS02001793JiankangQianchi        6.39      6.39      6.51      0.01         0.01
  YS02001882YS02001884        0.58      0.58      0.59      0.01         0.01
  YS02001884YS02001887        0.62      0.62      0.63      0.01         0.01
  YS02001887YS02001890        0.65      0.65      0.66      0.12         0.01
  YS02001890YS02001895        0.57      0.57      0.67      0.01         0.01
  YS02001895YS02001898        0.56      0.56      0.57      0.01         0.01
  YS02001898YS02001901        0.57      0.57      0.62      0.01         0.01
  YS02001901YS02001904        0.61      0.61      0.62      0.01         0.01
  YS02001904YS02001907        0.61      0.61      0.83      0.01         0.01
  YS02001907YS02006553        1.00      1.00      1.08      0.01         0.01
  YS02001910YS02001907        0.67      0.67      0.82      0.01         0.01
  YS02001915YS02001910        0.58      0.58      0.67      0.01         0.01
  YS02001918YS02001915        0.48      0.48      0.58      0.01         0.01
  YS02001920YS02001918        0.48      0.48      0.49      0.01         0.01
  YS02001923YS02001920        0.42      0.42      0.49      0.01         0.01
  YS02001926YS02001923        0.04      0.04      0.09      0.01         0.01
  YS02001929YS02001926        0.01      0.01      0.09      0.01         0.01
  YS02006553YS02006556        0.75      0.75      0.83      0.01         0.01
  YS02006556YS02006558        0.78      0.78      0.85      0.01         0.01
  YS02006558YS02006561        0.61      0.74      0.61      0.93         0.61
  YS02006561YS02001783        0.52      0.52      0.77      0.01         0.01
  YS02163301YS02001633        6.46      6.46      6.46      0.01         0.01
  YS02163601YS02164001        6.45      6.45      6.46      0.04         0.01
  YS02164001YS02001641        6.45      6.45      6.45      0.32         0.32
  
  
  ***************
  Pumping Summary
  ***************
  
  ---------------------------------------------------------------------------------------------------------
                                                  Min       Avg       Max     Total     Power    % Time Off
                        Percent   Number of      Flow      Flow      Flow    Volume     Usage    Pump Curve
  Pump                 Utilized   Start-Ups       LPS       LPS       LPS  10^6 ltr     Kw-hr    Low   High
  ---------------------------------------------------------------------------------------------------------
  CC-R1                    1.06           1      0.00    683.00    683.00     0.208      3.51    0.0  100.0
  CC-R2                    1.06           1      0.00    683.00    683.00     0.208      3.51    0.0  100.0
  CC-S1                   27.20           2      0.00    200.00    200.00     1.567      6.18    0.0   66.1
  CC-S2                   27.20           2      0.00    200.00    200.00     1.567      6.18    0.0   66.1
  JK-R1                    0.97           2      0.00    347.46   1000.00     0.078      0.47    0.0    0.0
  JK-R2                    0.97           2      0.00    347.46   1000.00     0.078      0.47    0.0    0.0
  JK-S                     0.97           2      0.00    104.30    300.00     0.023      0.44    0.0    0.0
  XR-1                   100.00           1      0.00     95.00     95.00     2.736     68.18    0.0    0.0
  XR-2                   100.00           1      0.00     95.00     95.00     2.736     68.18    0.0    0.0
  XR-3                   100.00           1      0.00     95.00     95.00     2.736     68.18    0.0    0.0
  XR-4                   100.00           1      0.00     95.00     95.00     2.736     68.18    0.0    0.0
  

  Analysis begun on:  Wed Nov  5 16:29:46 2025
  Analysis ended on:  Wed Nov  5 16:29:49 2025
  Total elapsed time: 00:00:03