
  EPA STORM WATER MANAGEMENT MODEL - VERSION 5.2 (Build 5.2.4)
  PYSWMM TOOLKIT API - VERSION v1.0 (2023-11-27)
  ------------------------------------------------------------

  WARNING 04: minimum elevation drop used for Conduit WS02004404WS02004405
  WARNING 03: negative offset ignored for Link YS02001904YS02001907
  
  ****************
  Analysis Options
  ****************
  Flow Units ............... LPS
  Process Models:
    Rainfall/Runoff ........ YES
    RDII ................... NO
    Snowmelt ............... NO
    Groundwater ............ NO
    Flow Routing ........... YES
    Ponding Allowed ........ NO
    Water Quality .......... NO
  Infiltration Method ...... HORTON
  Flow Routing Method ...... DYNWAVE
  Surcharge Method ......... EXTRAN
  Starting Date ............ 08/28/2015 08:00:00
  Ending Date .............. 08/28/2015 16:00:00
  Antecedent Dry Days ...... 8.0
  Report Time Step ......... 00:01:00
  Wet Time Step ............ 00:01:00
  Dry Time Step ............ 00:01:00
  Routing Time Step ........ 30.00 sec
  Variable Time Step ....... YES
  Maximum Trials ........... 8
  Number of Threads ........ 4
  Head Tolerance ........... 0.001500 m
  
  
  **************************        Volume         Depth
  Runoff Quantity Continuity     hectare-m            mm
  **************************     ---------       -------
  Initial LID Storage ......         0.049         1.488
  Total Precipitation ......         1.576        47.498
  Evaporation Loss .........         0.000         0.000
  Infiltration Loss ........         0.074         2.227
  Surface Runoff ...........         1.144        34.494
  Final Storage ............         0.408        12.289
  Continuity Error (%) .....        -0.051
  
  
  **************************        Volume        Volume
  Flow Routing Continuity        hectare-m      10^6 ltr
  **************************     ---------     ---------
  Dry Weather Inflow .......         0.602         6.020
  Wet Weather Inflow .......         1.144        11.439
  Groundwater Inflow .......         0.000         0.000
  RDII Inflow ..............         0.000         0.000
  External Inflow ..........         0.105         1.045
  External Outflow .........         1.484        14.836
  Flooding Loss ............         0.386         3.862
  Evaporation Loss .........         0.000         0.000
  Exfiltration Loss ........         0.000         0.000
  Initial Stored Volume ....         0.303         3.031
  Final Stored Volume ......         0.742         7.421
  Continuity Error (%) .....       -21.288
  
  
  *************************
  Highest Continuity Errors
  *************************
  Node YS02001774 (41.79%)
  Node WS02006256 (-6.17%)
  Node YS02001884 (4.90%)
  Node YS02001754 (4.63%)
  Node YS02001583 (-4.20%)
  
  
  ***************************
  Time-Step Critical Elements
  ***************************
  Link WS02001212WS02001213 (36.14%)
  Link WS02006238WS02006235 (21.01%)
  Link WS02006235WS02006234 (15.38%)
  Link YS02006556YS02006558 (5.02%)
  Link WS02003066WSF200 (4.68%)
  
  
  ********************************
  Highest Flow Instability Indexes
  ********************************
  Link YS02001765YS02001762 (43)
  Link YS02001762YS02001759 (42)
  Link YS02001767YS02001765 (42)
  Link YS02001759YS02001757 (41)
  Link WS02006113WS02006111 (39)
  
  
  *********************************
  Most Frequent Nonconverging Nodes
  *********************************
  Node CC-1 (8.22%)
  Node CC-2 (8.22%)
  Node JK-1 (8.22%)
  Node JK-2 (8.22%)
  Node WSC (8.22%)
  
  
  *************************
  Routing Time Step Summary
  *************************
  Minimum Time Step           :     0.07 sec
  Average Time Step           :     3.77 sec
  Maximum Time Step           :     6.46 sec
  % of Time in Steady State   :     0.00
  Average Iterations per Step :     2.93
  % of Steps Not Converging   :     8.22
  Time Step Frequencies       :
     30.000 - 13.228 sec      :     0.00 %
     13.228 -  5.833 sec      :    34.82 %
      5.833 -  2.572 sec      :    33.09 %
      2.572 -  1.134 sec      :    22.40 %
      1.134 -  0.500 sec      :     9.69 %
  
  
  ***************************
  Subcatchment Runoff Summary
  ***************************
  
  ------------------------------------------------------------------------------------------------------------------------------
                            Total      Total      Total      Total     Imperv       Perv      Total       Total     Peak  Runoff
                           Precip      Runon       Evap      Infil     Runoff     Runoff     Runoff      Runoff   Runoff   Coeff
  Subcatchment                 mm         mm         mm         mm         mm         mm         mm    10^6 ltr      LPS
  ------------------------------------------------------------------------------------------------------------------------------
  sub60                     47.50       0.00       0.00       1.31      31.33       3.09      34.43        0.45   353.59   0.725
  sub61                     47.50       0.00       0.00       2.02      31.31       4.59      35.89        0.66   516.02   0.756
  sub62                     47.50       0.00       0.00       0.89      33.37       2.10      35.47        0.97   705.31   0.747
  sub63                     47.50       0.00       0.00       3.73      26.81       7.55      34.36        0.78   585.15   0.723
  sub64                     47.50       0.00       0.00       1.78      30.52       3.77      34.29        0.82   573.03   0.722
  sub65                     47.50       0.00       0.00       1.64      32.94       3.44      36.38        1.00   666.46   0.766
  sub66                     47.50       0.00       0.00       4.40      25.91       6.53      32.44        1.51   861.66   0.683
  sub67                     47.50       0.00       0.00       0.88      34.22       2.18      36.40        0.68   546.45   0.766
  sub68                     47.50       0.00       0.00       1.55      30.22       3.52      33.74        0.93   703.90   0.710
  sub69                     47.50       0.00       0.00       1.41      31.92       4.23      36.15        1.34   862.35   0.761
  sub70                     47.50       0.00       0.00       4.82      25.56       8.40      33.96        0.98   496.34   0.715
  sub71                     47.50       0.00       0.00       0.82      30.31       1.89      32.20        0.84   579.41   0.678
  sub72                     47.50       0.00       0.00       0.79      32.73       1.76      34.49        0.47   296.88   0.726
  

  ***********************
  LID Performance Summary
  ***********************

  --------------------------------------------------------------------------------------------------------------------
                                         Total      Evap     Infil   Surface    Drain    Initial     Final  Continuity
                                        Inflow      Loss      Loss   Outflow   Outflow   Storage   Storage       Error
  Subcatchment      LID Control             mm        mm        mm        mm        mm        mm        mm           %
  --------------------------------------------------------------------------------------------------------------------
  sub60             GreenRoof            47.50      0.00      0.00      0.00      0.00      7.05     54.62       -0.14
  sub61             GreenRoof            47.50      0.00      0.00      0.00      0.00      7.05     54.62       -0.14
  sub62             GreenRoof            47.50      0.00      0.00      0.00      0.00      7.05     54.62       -0.14
  sub63             GreenRoof            47.50      0.00      0.00      0.00      0.00      7.05     54.62       -0.14
  sub64             GreenRoof            47.50      0.00      0.00      0.00      0.00      7.05     54.62       -0.14
  sub65             GreenRoof            47.50      0.00      0.00      0.00      0.00      7.05     54.62       -0.14
  sub66             GreenRoof            47.50      0.00      0.00      0.00      0.00      7.05     54.62       -0.14
  sub67             GreenRoof            47.50      0.00      0.00      0.00      0.00      7.05     54.62       -0.14
  sub68             GreenRoof            47.50      0.00      0.00      0.00      0.00      7.05     54.62       -0.14
  sub69             GreenRoof            47.50      0.00      0.00      0.00      0.00      7.05     54.62       -0.14
  sub70             GreenRoof            47.50      0.00      0.00      0.00      0.00      7.05     54.62       -0.14
  sub71             GreenRoof            47.50      0.00      0.00      0.00      0.00      7.05     54.62       -0.14
  sub72             GreenRoof            47.50      0.00      0.00      0.00      0.00      7.05     54.62       -0.14
  
  ******************
  Node Depth Summary
  ******************
  
  ---------------------------------------------------------------------------------
                                 Average  Maximum  Maximum  Time of Max    Reported
                                   Depth    Depth      HGL   Occurrence   Max Depth
  Node                 Type       Meters   Meters   Meters  days hr:min      Meters
  ---------------------------------------------------------------------------------
  WS02001211           JUNCTION     0.76     0.78     5.62     0  03:22        0.78
  WS02001212           JUNCTION     0.46     0.49     5.55     0  03:24        0.49
  WS02001213           JUNCTION     0.68     0.73     5.49     0  03:21        0.73
  WS02003059           JUNCTION     0.73     0.78     5.47     0  03:21        0.78
  WS02003060           JUNCTION     0.38     0.47     5.41     0  03:20        0.47
  WS02003066           JUNCTION     0.16     0.27     5.82     0  03:20        0.27
  WS02003067           JUNCTION     0.43     0.65     5.97     0  03:19        0.65
  WS02003069           JUNCTION     0.42     0.54     5.12     0  03:21        0.54
  WS02003072           JUNCTION     0.49     0.60     4.97     0  03:21        0.60
  WS02003073           JUNCTION     0.29     0.37     4.43     0  03:22        0.37
  WS02004138           JUNCTION     0.19     0.20     7.45     0  00:00        0.19
  WS02004139           JUNCTION     0.71     0.73     5.64     0  03:23        0.73
  WS02004401           JUNCTION     0.51     0.75     6.75     0  02:15        0.75
  WS02004402           JUNCTION     0.54     0.78     6.74     0  02:15        0.78
  WS02004403           JUNCTION     0.56     0.80     6.73     0  03:13        0.80
  WS02004404           JUNCTION     0.64     0.88     6.73     0  02:16        0.88
  WS02004405           JUNCTION     0.64     0.88     6.73     0  02:16        0.87
  WS02004406           JUNCTION     0.65     0.88     6.71     0  02:16        0.88
  WS02004407           JUNCTION     0.13     0.26     6.57     0  02:16        0.26
  WS02004409           JUNCTION     0.30     0.58     6.35     0  03:18        0.57
  WS02004410           JUNCTION     0.33     0.59     6.31     0  03:18        0.59
  WS02004411           JUNCTION     0.35     0.61     6.29     0  03:19        0.61
  WS02004412           JUNCTION     0.38     0.62     6.26     0  03:19        0.62
  WS02004413           JUNCTION     0.53     0.79     6.26     0  03:19        0.79
  WS02006109           JUNCTION     0.56     0.83     7.45     0  02:14        0.83
  WS02006110           JUNCTION     0.57     0.82     7.41     0  03:11        0.82
  WS02006111           JUNCTION     0.14     0.25     6.96     0  03:27        0.25
  WS02006112           JUNCTION     0.66     0.93     6.82     0  03:10        0.93
  WS02006113           JUNCTION     0.21     0.39     7.29     0  03:11        0.39
  WS02006115           JUNCTION     0.39     0.65     6.78     0  03:16        0.65
  WS02006116           JUNCTION     0.48     0.73     6.77     0  02:15        0.73
  WS02006228           JUNCTION     0.55     0.84     7.50     0  02:36        0.84
  WS02006229           JUNCTION     0.52     0.83     7.52     0  02:36        0.82
  WS02006230           JUNCTION     0.50     0.86     7.60     0  02:45        0.86
  WS02006231           JUNCTION     0.30     0.60     7.72     0  02:44        0.60
  WS02006232           JUNCTION     0.42     0.75     7.79     0  02:13        0.75
  WS02006234           JUNCTION     0.34     0.71     7.87     0  02:13        0.71
  WS02006235           JUNCTION     0.37     0.77     7.93     0  02:43        0.76
  WS02006238           JUNCTION     0.39     0.81     7.95     0  02:41        0.80
  WS02006239           JUNCTION     0.37     0.80     8.01     0  02:37        0.80
  WS02006240           JUNCTION     0.36     0.79     8.08     0  02:43        0.79
  WS02006242           JUNCTION     0.42     0.90     8.17     0  02:49        0.90
  WS02006243           JUNCTION     0.36     0.84     8.26     0  02:13        0.84
  WS02006245           JUNCTION     0.36     0.85     8.34     0  02:45        0.85
  WS02006247           JUNCTION     0.38     0.89     8.39     0  02:42        0.89
  WS02006248           JUNCTION     0.36     0.86     8.44     0  02:13        0.85
  WS02006249           JUNCTION     0.38     0.89     8.49     0  02:13        0.89
  WS02006251           JUNCTION     0.37     0.91     8.58     0  02:44        0.91
  WS02006252           JUNCTION     0.26     1.50     9.74     0  00:00        0.59
  WS02006256           JUNCTION     0.60     2.35     9.28     0  00:00        2.35
  WSF200               JUNCTION     0.13     0.25     5.48     0  02:19        0.25
  YS02001580           JUNCTION     0.08     1.05     9.59     0  02:19        0.77
  YS02001583           JUNCTION     0.11     1.08     9.57     0  02:19        0.82
  YS02001586           JUNCTION     0.19     1.13     9.30     0  02:19        1.13
  YS02001590           JUNCTION     0.29     1.40     9.26     0  02:17        1.37
  YS02001593           JUNCTION     0.23     1.33     9.19     0  02:17        1.28
  YS02001596           JUNCTION     0.34     1.66     9.08     0  02:19        1.65
  YS02001600           JUNCTION     0.55     1.86     8.99     0  02:19        1.86
  YS02001601           JUNCTION     0.79     2.06     8.90     0  02:18        2.06
  YS02001602           JUNCTION     0.71     1.87     8.77     0  02:18        1.87
  YS02001605           JUNCTION     0.67     1.78     8.68     0  02:19        1.78
  YS02001607           JUNCTION     0.66     1.65     8.50     0  02:19        1.65
  YS02001610           JUNCTION     0.70     1.68     8.48     0  02:19        1.68
  YS02001613           JUNCTION     0.67     1.68     8.52     0  02:19        1.68
  YS02001616           JUNCTION     0.60     1.61     8.52     0  02:19        1.61
  YS02001619           JUNCTION     0.58     1.57     8.50     0  02:22        1.57
  YS02001622           JUNCTION     0.59     1.56     8.46     0  02:21        1.55
  YS02001625           JUNCTION     0.84     1.78     8.38     0  02:21        1.78
  YS02001629           JUNCTION     0.84     1.85     8.40     0  02:23        1.85
  YS02001633           JUNCTION     0.92     2.02     8.47     0  02:24        2.01
  YS02001641           JUNCTION     0.90     1.96     8.39     0  02:24        1.93
  YS02001644           JUNCTION     0.90     1.92     8.35     0  02:24        1.92
  YS02001647           JUNCTION     0.71     1.71     8.32     0  02:24        1.70
  YS02001649           JUNCTION     0.85     1.90     8.29     0  02:24        1.87
  YS02001652           JUNCTION     0.69     1.78     8.38     0  02:24        1.69
  YS02001655           JUNCTION     0.51     1.70     8.55     0  02:24        1.47
  YS02001658           JUNCTION     0.31     1.71     8.85     0  02:24        1.20
  YS02001661           JUNCTION     0.16     1.07     8.47     0  02:25        0.96
  YS02001664           JUNCTION     0.06     0.51     8.44     0  02:25        0.42
  YS02001745           JUNCTION     0.06     0.70     8.21     0  02:24        0.69
  YS02001748           JUNCTION     0.34     1.56     8.63     0  02:24        1.13
  YS02001751           JUNCTION     0.47     1.57     8.45     0  02:24        1.30
  YS02001754           JUNCTION     0.65     1.70     8.30     0  02:24        1.55
  YS02001757           JUNCTION     0.93     1.95     8.21     0  02:24        1.88
  YS02001759           JUNCTION     0.85     1.91     8.27     0  02:24        1.88
  YS02001762           JUNCTION     0.82     1.90     8.30     0  02:24        1.87
  YS02001765           JUNCTION     0.78     1.88     8.33     0  02:24        1.85
  YS02001767           JUNCTION     0.76     1.86     8.35     0  02:24        1.84
  YS02001770           JUNCTION     0.77     1.91     8.40     0  02:24        1.91
  YS02001774           JUNCTION     0.83     2.02     8.44     0  02:23        2.02
  YS02001779           JUNCTION     0.60     1.68     8.37     0  02:22        1.68
  YS02001783           JUNCTION     0.48     1.51     7.66     0  02:22        1.48
  YS02001784           JUNCTION     0.53     1.66     7.73     0  02:15        1.43
  YS02001786           JUNCTION     0.52     2.03     8.06     0  02:15        1.27
  YS02001788           JUNCTION     0.52     2.11     8.09     0  02:15        1.14
  YS02001790           JUNCTION     0.74     1.96     7.60     0  02:15        1.29
  YS02001791           JUNCTION     0.83     1.68     7.15     0  02:15        1.27
  YS02001793           JUNCTION     1.27     2.01     6.85     0  02:15        1.80
  YS02001882           JUNCTION     0.31     1.70     8.42     0  02:22        1.63
  YS02001884           JUNCTION     0.40     1.79     8.41     0  02:22        1.71
  YS02001887           JUNCTION     0.47     1.84     8.38     0  02:22        1.80
  YS02001890           JUNCTION     0.50     1.81     8.32     0  02:22        1.81
  YS02001895           JUNCTION     0.28     1.58     8.33     0  02:22        1.56
  YS02001898           JUNCTION     0.29     1.59     8.33     0  02:22        1.55
  YS02001901           JUNCTION     0.40     1.70     8.31     0  02:22        1.67
  YS02001904           JUNCTION     0.38     1.65     8.28     0  02:22        1.63
  YS02001907           JUNCTION     0.69     1.96     8.25     0  02:22        1.96
  YS02001910           JUNCTION     0.49     1.95     8.46     0  02:22        1.93
  YS02001915           JUNCTION     0.31     1.90     8.62     0  02:23        1.88
  YS02001918           JUNCTION     0.17     1.81     8.88     0  02:22        1.81
  YS02001920           JUNCTION     0.25     2.12     9.13     0  02:22        2.03
  YS02001923           JUNCTION     0.13     2.03     9.29     0  02:22        1.93
  YS02001926           JUNCTION     0.16     1.90     9.35     0  02:22        1.90
  YS02001929           JUNCTION     0.09     1.78     9.47     0  02:22        1.68
  YS02006553           JUNCTION     0.69     1.97     8.26     0  02:23        1.97
  YS02006556           JUNCTION     0.67     1.94     8.26     0  02:23        1.94
  YS02006558           JUNCTION     0.71     1.99     8.26     0  02:25        1.99
  YS02006561           JUNCTION     0.18     1.12     7.78     0  02:22        1.10
  YS02163301           JUNCTION     0.87     1.92     8.43     0  02:24        1.92
  YS02163601           JUNCTION     0.96     2.05     8.44     0  02:24        2.03
  YS02164001           JUNCTION     0.89     1.96     8.42     0  02:24        1.94
  CC-1                 OUTFALL      0.00     0.00     0.00     0  00:00        0.00
  CC-2                 OUTFALL      0.00     0.00     0.00     0  00:00        0.00
  JK-1                 OUTFALL      0.00     0.00     0.00     0  00:00        0.00
  JK-2                 OUTFALL      0.00     0.00     0.00     0  00:00        0.00
  WSC                  OUTFALL      0.29     0.37     1.04     0  03:22        0.37
  CC-storage           STORAGE      1.47     2.03     7.53     0  08:00        2.03
  JK-storage           STORAGE      4.30     5.80     6.60     0  02:14        5.80
  XR-storage           STORAGE      0.30     5.00     3.00     0  00:00        4.91
  
  
  *******************
  Node Inflow Summary
  *******************
  
  -------------------------------------------------------------------------------------------------
                                  Maximum  Maximum                  Lateral       Total        Flow
                                  Lateral    Total  Time of Max      Inflow      Inflow     Balance
                                   Inflow   Inflow   Occurrence      Volume      Volume       Error
  Node                 Type           LPS      LPS  days hr:min    10^6 ltr    10^6 ltr     Percent
  -------------------------------------------------------------------------------------------------
  WS02001211           JUNCTION      7.35   389.13     0  03:39       0.212        11.1       0.348
  WS02001212           JUNCTION      0.00   390.87     0  02:31           0        11.1       0.207
  WS02001213           JUNCTION      0.00   392.63     0  02:30           0        11.1       0.238
  WS02003059           JUNCTION      0.00   395.65     0  02:30           0          11       0.328
  WS02003060           JUNCTION     16.53   816.09     0  03:20       0.476        14.3       0.151
  WS02003066           JUNCTION      0.00   411.91     0  03:19           0        2.84       0.043
  WS02003067           JUNCTION      0.00   411.90     0  03:19           0        2.84       0.141
  WS02003069           JUNCTION      0.32   816.39     0  03:20     0.00922        14.3       0.159
  WS02003072           JUNCTION      0.00   816.37     0  03:21           0        14.3       0.208
  WS02003073           JUNCTION      1.82   818.18     0  03:21      0.0524        14.3       0.223
  WS02004138           JUNCTION      0.00   380.00     0  00:00           0        10.9       0.059
  WS02004139           JUNCTION      0.32   395.52     0  00:00     0.00924        10.9       0.407
  WS02004401           JUNCTION      0.00   412.15     0  02:15           0        2.94       0.337
  WS02004402           JUNCTION      0.00   411.99     0  02:53           0        2.93       0.344
  WS02004403           JUNCTION      0.00   412.08     0  02:15           0        2.92       0.338
  WS02004404           JUNCTION      0.16   412.16     0  02:16     0.00467        2.92       0.282
  WS02004405           JUNCTION      0.04   412.19     0  03:13      0.0011        2.91       0.421
  WS02004406           JUNCTION      0.00   412.28     0  03:13           0         2.9       0.705
  WS02004407           JUNCTION      0.00   412.06     0  02:16           0        2.88       0.031
  WS02004409           JUNCTION      0.00   412.01     0  02:16           0        2.88       0.075
  WS02004410           JUNCTION      0.00   411.98     0  02:17           0        2.87       0.135
  WS02004411           JUNCTION      0.00   411.97     0  03:18           0        2.87       0.178
  WS02004412           JUNCTION      0.00   411.95     0  03:19           0        2.86       0.244
  WS02004413           JUNCTION      0.00   411.95     0  03:15           0        2.86       0.439
  WS02006109           JUNCTION      1.23   411.81     0  02:45      0.0354        2.98       0.239
  WS02006110           JUNCTION      0.00   411.80     0  02:45           0        2.98       0.207
  WS02006111           JUNCTION      0.00   423.19     0  02:51           0        2.97       0.026
  WS02006112           JUNCTION      0.00   413.97     0  02:15           0        2.97       0.587
  WS02006113           JUNCTION      0.00   412.02     0  02:45           0        2.97       0.048
  WS02006115           JUNCTION      0.00   412.38     0  02:52           0        2.95       0.210
  WS02006116           JUNCTION      0.00   412.18     0  02:15           0        2.95       0.152
  WS02006228           JUNCTION      0.00   410.57     0  02:45           0        2.95       0.082
  WS02006229           JUNCTION      0.00   410.56     0  02:45           0        2.96       0.152
  WS02006230           JUNCTION     10.28   410.56     0  02:13       0.296        2.96       0.184
  WS02006231           JUNCTION      0.00   400.36     0  02:44           0        2.66      -0.091
  WS02006232           JUNCTION      0.00   400.35     0  02:44           0        2.67       0.310
  WS02006234           JUNCTION      0.00   401.41     0  02:43           0        2.67      -0.205
  WS02006235           JUNCTION      0.00   402.43     0  02:43           0        2.68       0.262
  WS02006238           JUNCTION      0.00   401.84     0  02:43           0        2.66      -0.318
  WS02006239           JUNCTION      0.00   400.88     0  02:43           0        2.64      -0.273
  WS02006240           JUNCTION      0.00   400.61     0  02:13           0        2.64      -0.053
  WS02006242           JUNCTION      0.00   400.66     0  02:49           0        2.64       0.010
  WS02006243           JUNCTION      0.00   400.99     0  02:39           0        2.63      -0.058
  WS02006245           JUNCTION      0.00   400.92     0  02:13           0        2.64       0.417
  WS02006247           JUNCTION      0.00   400.77     0  02:39           0        2.64      -0.004
  WS02006248           JUNCTION      0.00   400.81     0  02:41           0        2.65       0.049
  WS02006249           JUNCTION      0.00   472.53     0  02:21           0        2.66       0.317
  WS02006251           JUNCTION      0.08   401.12     0  02:21     0.00222        2.66       0.010
  WS02006252           JUNCTION      0.00   400.00     0  00:00           0        2.65      -0.059
  WS02006256           JUNCTION      0.00   300.00     0  00:00           0      0.0241      -5.813
  WSF200               JUNCTION      0.00   411.90     0  03:20           0        2.84       0.018
  YS02001580           JUNCTION      0.00   111.64     0  02:19           0     0.00389      -5.678
  YS02001583           JUNCTION      0.00   156.55     0  02:19           0       0.015      -4.034
  YS02001586           JUNCTION    496.34   496.47     0  02:26       0.981       0.993       0.129
  YS02001590           JUNCTION      0.00   318.57     0  02:33           0       0.899      -0.021
  YS02001593           JUNCTION      0.00   318.16     0  02:33           0       0.899       0.009
  YS02001596           JUNCTION      0.00   318.18     0  02:33           0       0.899       0.097
  YS02001600           JUNCTION      0.00   318.03     0  02:34           0       0.899       0.496
  YS02001601           JUNCTION    862.35  1179.72     0  02:25        1.34        2.23       0.402
  YS02001602           JUNCTION      0.00   510.52     0  02:18           0        1.65       0.554
  YS02001605           JUNCTION      0.00   509.70     0  02:18           0        1.58       0.865
  YS02001607           JUNCTION      0.00   510.18     0  02:18           0        1.57       1.093
  YS02001610           JUNCTION      0.00   509.74     0  02:18           0        1.55       1.153
  YS02001613           JUNCTION      0.00   509.73     0  02:18           0        1.36       1.330
  YS02001616           JUNCTION      0.00   512.53     0  02:18           0        1.34       1.129
  YS02001619           JUNCTION    861.66   935.38     0  02:21        1.51        2.84       0.516
  YS02001622           JUNCTION      0.00   933.96     0  02:21           0        2.82       0.748
  YS02001625           JUNCTION      0.00   933.19     0  02:21           0        2.81       1.505
  YS02001629           JUNCTION      0.00   933.85     0  02:21           0        2.44       0.725
  YS02001633           JUNCTION    666.66  1391.69     0  02:21        1.01        3.39       0.956
  YS02001641           JUNCTION      0.00  1387.41     0  02:21           0        3.31       0.633
  YS02001644           JUNCTION    573.06  1787.29     0  02:22       0.825        4.11       0.630
  YS02001647           JUNCTION      0.00  1788.39     0  02:22           0        4.06       0.651
  YS02001649           JUNCTION      0.00  2035.38     0  02:22           0        4.78       0.796
  YS02001652           JUNCTION      0.00   688.31     0  02:25           0       0.775       2.725
  YS02001655           JUNCTION      0.15   686.77     0  02:25     0.00443       0.789       2.246
  YS02001658           JUNCTION      0.00   684.23     0  02:25           0       0.786       0.958
  YS02001661           JUNCTION      0.00   783.98     0  02:26           0       0.782       0.089
  YS02001664           JUNCTION    585.15   585.15     0  02:25        0.78        0.78      -0.016
  YS02001745           JUNCTION    353.60   353.60     0  02:25       0.452       0.453       0.355
  YS02001748           JUNCTION      0.04   508.49     0  02:24      0.0013       0.458       1.384
  YS02001751           JUNCTION      0.01   405.11     0  02:25    0.000317       0.464       3.776
  YS02001754           JUNCTION      0.26   406.19     0  02:25     0.00749       0.464       4.860
  YS02001757           JUNCTION      0.00  3235.87     0  02:25           0        6.64       1.326
  YS02001759           JUNCTION    516.06  1222.87     0  02:25        0.66         1.5       1.635
  YS02001762           JUNCTION      0.00   710.23     0  02:25           0       0.863       2.439
  YS02001765           JUNCTION      0.00   708.99     0  02:25           0       0.884       2.483
  YS02001767           JUNCTION      0.54   708.74     0  02:25      0.0154       0.923       4.322
  YS02001770           JUNCTION    705.47   705.47     0  02:25       0.976       0.988       3.293
  YS02001774           JUNCTION      0.00   281.20     0  02:22           0      0.0589      71.781
  YS02001779           JUNCTION      0.01   289.80     0  02:22    0.000144      0.0234     127.481
  YS02001783           JUNCTION      0.00   974.81     0  02:24           0        2.56       0.264
  YS02001784           JUNCTION      1.06   975.57     0  02:24      0.0305        2.59       0.415
  YS02001786           JUNCTION      0.06   975.49     0  02:25     0.00162        2.58       0.524
  YS02001788           JUNCTION      0.07   975.81     0  02:24     0.00204        2.57       0.529
  YS02001790           JUNCTION      0.15   976.39     0  02:24     0.00446        2.56       0.654
  YS02001791           JUNCTION      0.00   975.92     0  02:24           0        2.54       0.586
  YS02001793           JUNCTION      0.00   976.72     0  02:24           0        2.53       0.625
  YS02001882           JUNCTION      0.00    41.85     0  02:20           0      0.0122       3.744
  YS02001884           JUNCTION      0.00    69.00     0  02:20           0      0.0479       5.157
  YS02001887           JUNCTION    546.90   546.93     0  02:25        0.69       0.723       0.606
  YS02001890           JUNCTION      0.00   546.99     0  02:25           0       0.683       0.744
  YS02001895           JUNCTION      0.00   510.94     0  02:25           0       0.673       0.180
  YS02001898           JUNCTION      0.00   510.71     0  02:25           0       0.672       0.038
  YS02001901           JUNCTION      0.00   511.58     0  02:25           0       0.674       0.456
  YS02001904           JUNCTION      0.00   511.29     0  02:25           0       0.678       0.381
  YS02001907           JUNCTION      0.00  1454.47     0  02:23           0        2.07       0.881
  YS02001910           JUNCTION      0.00   973.05     0  02:23           0         1.4       0.509
  YS02001915           JUNCTION    579.43   971.93     0  02:23       0.842        1.45       0.101
  YS02001918           JUNCTION      0.00   481.39     0  02:21           0       0.634       0.044
  YS02001920           JUNCTION      2.87   453.21     0  02:23      0.0827       0.615       0.123
  YS02001923           JUNCTION      0.04   461.30     0  02:21     0.00109       0.515      -0.278
  YS02001926           JUNCTION      0.05   758.89     0  02:22      0.0015       0.493       0.129
  YS02001929           JUNCTION    296.88   473.23     0  02:22       0.474       0.477      -0.185
  YS02006553           JUNCTION      0.00   678.95     0  02:35           0        1.65       0.706
  YS02006556           JUNCTION      0.00   678.44     0  02:35           0        1.66       0.466
  YS02006558           JUNCTION    704.78   975.46     0  02:23       0.953        2.59       0.137
  YS02006561           JUNCTION      0.00   974.38     0  02:23           0        2.56      -0.015
  YS02163301           JUNCTION      0.00   933.20     0  02:21           0        2.41       0.950
  YS02163601           JUNCTION      0.11  1390.52     0  02:21     0.00317        3.35       0.898
  YS02164001           JUNCTION      0.00  1389.85     0  02:21           0        3.32       0.586
  CC-1                 OUTFALL       0.00   683.00     0  00:00           0       0.208       0.000
  CC-2                 OUTFALL       0.00   683.00     0  00:00           0       0.208       0.000
  JK-1                 OUTFALL       0.00  1000.00     0  00:00           0      0.0791       0.000
  JK-2                 OUTFALL       0.00  1000.00     0  00:00           0      0.0791       0.000
  WSC                  OUTFALL       0.00   818.17     0  03:22           0        14.3       0.000
  CC-storage           STORAGE       0.00  3236.15     0  02:25           0        8.76       0.421
  JK-storage           STORAGE       0.00   976.36     0  02:24           0        2.66       0.602
  XR-storage           STORAGE     200.00   200.00     0  00:00        5.76        6.36     -41.886
  
  
  **********************
  Node Surcharge Summary
  **********************
  
  Surcharging occurs when water rises above the top of the highest conduit.
  ---------------------------------------------------------------------
                                               Max. Height   Min. Depth
                                   Hours       Above Crown    Below Rim
  Node                 Type      Surcharged         Meters       Meters
  ---------------------------------------------------------------------
  WS02006109           JUNCTION        1.32          0.015        1.805
  WS02006228           JUNCTION        1.29          0.015        2.185
  WS02006229           JUNCTION        1.33          0.026        2.424
  WS02006232           JUNCTION        1.44          0.050        1.430
  WS02006235           JUNCTION        1.34          0.057        1.233
  WS02006238           JUNCTION        1.38          0.086        1.344
  WS02006239           JUNCTION        1.35          0.065        1.225
  WS02006240           JUNCTION        1.35          0.077        1.313
  WS02006242           JUNCTION        1.50          0.172        0.648
  WS02006243           JUNCTION        1.38          0.131        0.639
  WS02006245           JUNCTION        1.38          0.144        0.706
  WS02006247           JUNCTION        1.41          0.179        0.581
  WS02006248           JUNCTION        1.37          0.136        0.244
  WS02006249           JUNCTION        1.41          0.195        0.195
  WS02006252           JUNCTION        1.84          1.100        0.000
  WS02006256           JUNCTION        2.84          2.050        0.000
  YS02001580           JUNCTION        0.32          0.450        0.000
  YS02001583           JUNCTION        0.33          0.438        0.062
  YS02001586           JUNCTION        0.44          0.510        0.000
  YS02001590           JUNCTION        0.50          0.750        0.000
  YS02001593           JUNCTION        0.50          0.712        0.128
  YS02001596           JUNCTION        0.61          0.931        0.139
  YS02001600           JUNCTION        0.77          1.182        0.008
  YS02001601           JUNCTION        5.89          1.440        0.000
  YS02001602           JUNCTION        5.05          1.270        0.000
  YS02001605           JUNCTION        4.93          1.180        0.000
  YS02001607           JUNCTION        0.53          0.653        0.027
  YS02001610           JUNCTION        0.56          0.680        0.000
  YS02001613           JUNCTION        0.52          0.681        0.019
  YS02001616           JUNCTION        0.48          0.606        0.004
  YS02001619           JUNCTION        0.46          0.575        0.035
  YS02001622           JUNCTION        0.47          0.560        0.060
  YS02001625           JUNCTION        0.77          0.780        0.000
  YS02001629           JUNCTION        0.42          0.470        0.000
  YS02001633           JUNCTION        5.54          0.995        0.065
  YS02001641           JUNCTION        5.71          0.958        0.142
  YS02001644           JUNCTION        5.70          0.920        0.000
  YS02001647           JUNCTION        0.48          0.712        0.188
  YS02001649           JUNCTION        5.64          0.901        0.149
  YS02001652           JUNCTION        0.35          0.753        0.377
  YS02001655           JUNCTION        0.17          0.699        0.501
  YS02001658           JUNCTION        0.06          0.706        0.594
  YS02001748           JUNCTION        0.01          0.477        0.713
  YS02001751           JUNCTION        0.09          0.568        0.632
  YS02001754           JUNCTION        0.23          0.647        0.503
  YS02001757           JUNCTION        5.63          0.950        0.260
  YS02001759           JUNCTION        5.63          0.911        0.299
  YS02001762           JUNCTION        5.63          0.903        0.247
  YS02001765           JUNCTION        5.62          0.883        0.217
  YS02001767           JUNCTION        5.12          0.862        0.168
  YS02001770           JUNCTION        2.04          0.879        0.041
  YS02001774           JUNCTION        5.62          1.015        0.035
  YS02001779           JUNCTION        0.22          0.680        0.000
  YS02001783           JUNCTION        0.50          0.715        0.885
  YS02001784           JUNCTION        0.50          0.858        0.632
  YS02001786           JUNCTION        0.50          1.226        0.204
  YS02001788           JUNCTION        0.50          1.312        0.168
  YS02001790           JUNCTION        5.77          1.157        0.000
  YS02001791           JUNCTION        5.78          0.879        1.041
  YS02001793           JUNCTION        5.80          1.015        1.585
  YS02001882           JUNCTION        0.30          0.703        0.127
  YS02001884           JUNCTION        0.31          0.729        0.141
  YS02001887           JUNCTION        0.34          0.791        0.159
  YS02001890           JUNCTION        0.35          0.760        0.000
  YS02001895           JUNCTION        0.29          0.583        0.167
  YS02001898           JUNCTION        0.29          0.563        0.177
  YS02001901           JUNCTION        0.33          0.697        0.173
  YS02001904           JUNCTION        0.32          0.648        0.202
  YS02001907           JUNCTION        0.51          0.950        0.000
  YS02001910           JUNCTION        0.37          0.949        0.151
  YS02001915           JUNCTION        0.30          0.903        0.097
  YS02001918           JUNCTION        0.22          0.810        0.000
  YS02001920           JUNCTION        0.24          1.124        0.016
  YS02001923           JUNCTION        0.01          0.820        0.000
  YS02001926           JUNCTION        0.01          0.900        0.000
  YS02001929           JUNCTION        0.01          0.780        0.000
  YS02006553           JUNCTION        0.52          0.973        0.217
  YS02006556           JUNCTION        0.44          0.904        0.446
  YS02006558           JUNCTION        0.43          0.894        0.506
  YS02006561           JUNCTION        0.26          0.324        0.826
  YS02163301           JUNCTION        3.49          0.917        0.113
  YS02163601           JUNCTION        5.74          1.045        0.035
  YS02164001           JUNCTION        5.66          0.963        0.137
  
  
  *********************
  Node Flooding Summary
  *********************
  
  Flooding refers to all water that overflows a node, whether it ponds or not.
  --------------------------------------------------------------------------
                                                             Total   Maximum
                                 Maximum   Time of Max       Flood    Ponded
                        Hours       Rate    Occurrence      Volume     Depth
  Node                 Flooded       LPS   days hr:min    10^6 ltr    Meters
  --------------------------------------------------------------------------
  WS02006252              0.01    245.63      0  00:00       0.000     0.000
  WS02006256              0.02    293.19      0  00:00       0.005     0.000
  YS02001580              0.01     77.04      0  02:19       0.000     0.000
  YS02001586              0.24    178.75      0  02:26       0.082     0.000
  YS02001590              0.01     34.08      0  02:17       0.000     0.000
  YS02001601              0.38    781.91      0  02:25       0.578     0.000
  YS02001602              0.30     62.01      0  02:34       0.058     0.000
  YS02001605              0.01      3.08      0  02:19       0.000     0.000
  YS02001610              0.24    346.47      0  02:26       0.180     0.000
  YS02001625              0.22    928.24      0  02:26       0.341     0.000
  YS02001629              0.05     96.37      0  02:25       0.009     0.000
  YS02001644              0.04    271.96      0  02:25       0.023     0.000
  YS02001779              0.01    169.43      0  02:22       0.001     0.000
  YS02001790              0.01      8.39      0  02:15       0.000     0.000
  YS02001890              0.06     42.13      0  02:25       0.005     0.000
  YS02001907              0.18   1128.27      0  02:23       0.407     0.000
  YS02001918              0.01    157.61      0  02:23       0.002     0.000
  YS02001923              0.01    105.31      0  02:22       0.000     0.000
  YS02001926              0.01    160.68      0  02:22       0.001     0.000
  YS02001929              0.01    152.34      0  02:22       0.000     0.000
  JK-storage              5.76    976.18      0  02:24       2.171     0.000
  
  
  **********************
  Storage Volume Summary
  **********************
  
  ------------------------------------------------------------------------------------------------
                         Average    Avg   Evap  Exfil     Maximum    Max    Time of Max    Maximum
                          Volume   Pcnt   Pcnt   Pcnt      Volume   Pcnt     Occurrence    Outflow
  Storage Unit           1000 m³   Full   Loss   Loss     1000 m³   Full    days hr:min        LPS
  ------------------------------------------------------------------------------------------------
  CC-storage               4.109   64.1    0.0    0.0       5.650   88.1       0  08:00    1783.53
  JK-storage               0.216   74.1    0.0    0.0       0.291  100.0       0  02:14    2300.00
  XR-storage               0.036    2.5    0.0    0.0       0.600   41.7       0  00:00     380.00
  
  
  ***********************
  Outfall Loading Summary
  ***********************
  
  -----------------------------------------------------------
                         Flow       Avg       Max       Total
                         Freq      Flow      Flow      Volume
  Outfall Node           Pcnt       LPS       LPS    10^6 ltr
  -----------------------------------------------------------
  CC-1                   1.34    683.00    683.00       0.208
  CC-2                   1.34    683.00    683.00       0.208
  JK-1                   1.24    347.46   1000.00       0.079
  JK-2                   1.24    347.46   1000.00       0.079
  WSC                   99.92    557.31    818.17      14.261
  -----------------------------------------------------------
  System                21.02   2618.23   3366.35      14.836
  
  
  ********************
  Link Flow Summary
  ********************
  
  -----------------------------------------------------------------------------
                                 Maximum  Time of Max   Maximum    Max/    Max/
                                  |Flow|   Occurrence   |Veloc|    Full    Full
  Link                 Type          LPS  days hr:min     m/sec    Flow   Depth
  -----------------------------------------------------------------------------
  1                    CONDUIT    818.17     0  03:22      3.15    0.28    0.37
  WS02001211WS02001212 CONDUIT    390.87     0  02:31      0.78    0.30    0.64
  WS02001212WS02001213 CONDUIT    392.63     0  02:30      1.32    0.61    0.45
  WS02001213WS02003059 CONDUIT    395.65     0  02:30      0.85    0.65    0.75
  WS02003059WS02003060 CONDUIT    399.96     0  02:29      0.95    0.26    0.63
  WS02003060WS02003069 CONDUIT    816.07     0  03:20      1.80    0.32    0.42
  WS02003066WSF200     CONDUIT    411.90     0  03:20      2.69    0.07    0.19
  WS02003067WS02003066 CONDUIT    411.91     0  03:19      1.04    0.13    0.38
  WS02003069WS02003072 CONDUIT    816.37     0  03:21      1.55    0.39    0.47
  WS02003072WS02003073 CONDUIT    816.36     0  03:21      1.64    1.76    0.45
  WS02004138WS02004139 CONDUIT    395.20     0  00:00      3.65    0.08    0.43
  WS02004139WS02001211 CONDUIT    381.79     0  03:39      0.91    0.48    0.59
  WS02004401WS02004402 CONDUIT    411.99     0  02:53      0.99    0.49    0.77
  WS02004402WS02004403 CONDUIT    412.08     0  02:15      0.99    0.59    0.79
  WS02004403WS02004404 CONDUIT    412.00     0  02:16      0.93    0.30    0.84
  WS02004404WS02004405 CONDUIT    412.15     0  03:13      1.10    4.04    0.88
  WS02004405WS02004406 CONDUIT    412.28     0  03:13      1.03    0.81    0.88
  WS02004406WS02004407 CONDUIT    412.06     0  02:16      0.89    0.18    0.57
  WS02004407WS02004409 CONDUIT    412.01     0  02:16      1.41    0.15    0.42
  WS02004409WS02004410 CONDUIT    411.98     0  02:17      0.92    0.53    0.58
  WS02004410WS02004411 CONDUIT    411.97     0  03:18      0.86    0.56    0.60
  WS02004411WS02004412 CONDUIT    411.95     0  03:19      0.81    0.59    0.61
  WS02004412WS02004413 CONDUIT    411.95     0  03:15      0.70    0.28    0.70
  WS02004413WS02003067 CONDUIT    411.90     0  03:19      0.96    0.18    0.54
  WS02006109WS02006110 CONDUIT    411.80     0  02:45      0.84    0.79    0.94
  WS02006110WS02006113 CONDUIT    412.02     0  02:45      1.03    0.37    0.75
  WS02006111WS02006112 CONDUIT    413.97     0  02:15      1.83    0.20    0.65
  WS02006112WS02006115 CONDUIT    412.38     0  02:52      0.71    0.24    0.78
  WS02006113WS02006111 CONDUIT    423.19     0  02:51      2.25    0.51    0.40
  WS02006115WS02006116 CONDUIT    412.18     0  02:15      0.98    0.53    0.66
  WS02006116WS02004401 CONDUIT    412.15     0  02:15      1.00    0.57    0.74
  WS02006228WS02006109 CONDUIT    410.58     0  02:45      1.06    1.79    1.00
  WS02006229WS02006228 CONDUIT    410.57     0  02:45      1.13    1.36    1.00
  WS02006230WS02006229 CONDUIT    410.56     0  02:45      1.22    9.14    1.00
  WS02006231WS02006230 CONDUIT    400.29     0  02:13      1.37    6.07    0.77
  WS02006232WS02006231 CONDUIT    400.36     0  02:44      1.08    0.84    0.92
  WS02006234WS02006232 CONDUIT    400.35     0  02:44      1.40    0.81    1.00
  WS02006235WS02006234 CONDUIT    401.41     0  02:43      1.29    4.24    0.99
  WS02006238WS02006235 CONDUIT    402.43     0  02:43      1.50    0.90    1.00
  WS02006239WS02006238 CONDUIT    401.84     0  02:43      1.21    1.29    1.00
  WS02006240WS02006239 CONDUIT    400.88     0  02:43      1.30    1.26    1.00
  WS02006242WS02006240 CONDUIT    400.61     0  02:13      1.17    1.59    1.00
  WS02006243WS02006242 CONDUIT    400.66     0  02:49      1.44    0.86    1.00
  WS02006245WS02006243 CONDUIT    400.99     0  02:39      1.45    1.19    1.00
  WS02006247WS02006245 CONDUIT    400.92     0  02:13      1.43    3.18    1.00
  WS02006248WS02006247 CONDUIT    400.77     0  02:39      1.42    0.87    1.00
  WS02006249WS02006248 CONDUIT    400.81     0  02:41      1.37    2.20    1.00
  WS02006251WS02006249 CONDUIT    472.53     0  02:21      1.99    1.36    1.00
  WS02006252WS02006251 CONDUIT    401.05     0  02:21     24.55    1.47    1.00
  WS02006256WS02006235 CONDUIT    288.91     0  00:00      4.23    3.06    1.00
  WSF200WS02003060     CONDUIT    411.91     0  03:20      1.43    0.09    0.30
  YS02001580YS02001583 CONDUIT    111.64     0  02:19      0.63    0.43    1.00
  YS02001583YS02001586 CONDUIT    156.55     0  02:19      0.65    0.24    1.00
  YS02001586YS02001590 CONDUIT    318.57     0  02:33      1.27    0.56    1.00
  YS02001590YS02001593 CONDUIT    318.16     0  02:33      1.13    2.00    1.00
  YS02001593YS02001596 CONDUIT    318.18     0  02:33      1.63    0.50    1.00
  YS02001596YS02001600 CONDUIT    318.03     0  02:34      1.12    0.62    1.00
  YS02001600YS02001601 CONDUIT    318.17     0  02:33      1.13    0.55    1.00
  YS02001601YS02001602 CONDUIT    510.52     0  02:18      1.81    1.84    1.00
  YS02001602YS02001605 CONDUIT    509.70     0  02:18      1.80   10.79    1.00
  YS02001605YS02001607 CONDUIT    510.18     0  02:18      1.80    2.80    1.00
  YS02001607YS02001610 CONDUIT    509.74     0  02:18      0.65    0.48    1.00
  YS02001610YS02001613 CONDUIT    509.73     0  02:18      0.65    0.59    1.00
  YS02001613YS02001616 CONDUIT    512.53     0  02:18      0.66    0.44    1.00
  YS02001616YS02001619 CONDUIT    501.59     0  02:18      0.66    0.87    1.00
  YS02001619YS02001622 CONDUIT    933.96     0  02:21      1.19    1.38    1.00
  YS02001622YS02001625 CONDUIT    933.19     0  02:21      1.19    0.50    1.00
  YS02001625YS02001629 CONDUIT    933.85     0  02:21      1.19    0.44    1.00
  YS02001629YS02163301 CONDUIT    933.20     0  02:21      1.19    1.15    1.00
  YS02001633YS02163601 CONDUIT   1390.41     0  02:21      1.77    1.46    1.00
  YS02001641YS02001644 CONDUIT   1386.17     0  02:21      1.76    4.48    1.00
  YS02001644YS02001647 CONDUIT   1788.39     0  02:22      2.28    1.05    1.00
  YS02001647YS02001649 CONDUIT   1802.02     0  02:22      2.35    0.95    1.00
  YS02001649YS02001757 CONDUIT   2033.33     0  02:22      2.59    1.23    1.00
  YS02001652YS02001649 CONDUIT    690.61     0  02:25      0.88    0.34    1.00
  YS02001655YS02001652 CONDUIT    688.31     0  02:25      1.28    0.33    1.00
  YS02001658YS02001655 CONDUIT    686.61     0  02:25      1.91    0.29    1.00
  YS02001661YS02001658 CONDUIT    684.23     0  02:25      2.32    0.27    1.00
  YS02001664YS02001661 CONDUIT    783.98     0  02:26      2.32    0.25    0.72
  YS02001745YS02001748 CONDUIT    508.44     0  02:24      2.14    0.20    0.85
  YS02001748YS02001751 CONDUIT    405.10     0  02:25      1.66    0.20    1.00
  YS02001751YS02001754 CONDUIT    405.93     0  02:25      1.40    0.20    1.00
  YS02001754YS02001757 CONDUIT    405.71     0  02:25      0.52    0.16    1.00
  YS02001757CaochengTiaoxuchi CONDUIT   3236.15     0  02:25      4.12    1.40    1.00
  YS02001759YS02001757 CONDUIT   1224.24     0  02:25      1.56    0.87    1.00
  YS02001762YS02001759 CONDUIT    712.97     0  02:23      0.91    0.82    1.00
  YS02001765YS02001762 CONDUIT    710.23     0  02:25      0.90    0.67    1.00
  YS02001767YS02001765 CONDUIT    708.99     0  02:25      0.90    0.89    1.00
  YS02001770YS02001767 CONDUIT    708.21     0  02:25      0.90    2.81    1.00
  YS02001774YS02001770 CONDUIT    281.20     0  02:22      0.36    0.18    1.00
  YS02001779YS02001774 CONDUIT    289.80     0  02:22      0.38    0.15    1.00
  YS02001783YS02001784 CONDUIT    974.51     0  02:24      1.94    1.34    1.00
  YS02001784YS02001785 CONDUIT    975.43     0  02:25      1.94    2.27    1.00
  YS02001786YS02001788 CONDUIT    975.74     0  02:24      1.98    1.88    1.00
  YS02001788YS02001790 CONDUIT    976.23     0  02:24      2.02    0.72    1.00
  YS02001790YS02001791 CONDUIT    975.92     0  02:24      2.34    1.06    1.00
  YS02001791YS02001793 CONDUIT    976.72     0  02:24      4.42    0.42    1.00
  YS02001793JiankangQianchi CONDUIT    976.36     0  02:24      1.54    0.08    1.00
  YS02001882YS02001884 CONDUIT     41.85     0  02:20      0.09    0.05    1.00
  YS02001884YS02001887 CONDUIT     69.00     0  02:20      0.09    0.09    1.00
  YS02001887YS02001890 CONDUIT    546.99     0  02:25      0.70    0.94    1.00
  YS02001890YS02001895 CONDUIT    510.94     0  02:25      0.65    0.24    1.00
  YS02001895YS02001898 CONDUIT    510.71     0  02:25      0.65    0.89    1.00
  YS02001898YS02001901 CONDUIT    511.58     0  02:25      0.65    0.33    1.00
  YS02001901YS02001904 CONDUIT    511.29     0  02:25      0.65    0.79    1.00
  YS02001904YS02001907 CONDUIT    511.29     0  02:25      0.65    0.18    1.00
  YS02001907YS02006553 CONDUIT    678.95     0  02:35      0.75    0.80    1.00
  YS02001910YS02001907 CONDUIT    972.71     0  02:23      1.24    0.55    1.00
  YS02001915YS02001910 CONDUIT    973.05     0  02:23      1.24    0.48    1.00
  YS02001918YS02001915 CONDUIT    481.39     0  02:21      0.64    0.27    1.00
  YS02001920YS02001918 CONDUIT    454.21     0  02:23      0.64    0.44    1.00
  YS02001923YS02001920 CONDUIT    450.34     0  02:23      0.70    0.20    1.00
  YS02001926YS02001923 CONDUIT    445.33     0  02:22      0.95    0.64    1.00
  YS02001929YS02001926 CONDUIT    411.53     0  02:23      1.11    0.20    1.00
  YS02006553YS02006556 CONDUIT    678.44     0  02:35      0.86    0.58    1.00
  YS02006556YS02006558 CONDUIT    678.50     0  02:34      0.86    0.54    1.00
  YS02006558YS02006561 CONDUIT    974.38     0  02:23      3.45    2.15    1.00
  YS02006561YS02001783 CONDUIT    974.81     0  02:24      2.03    0.50    1.00
  YS02163301YS02001633 CONDUIT    932.19     0  02:21      1.19    0.88    1.00
  YS02163601YS02164001 CONDUIT   1389.85     0  02:21      1.77    1.23    1.00
  YS02164001YS02001641 CONDUIT   1387.41     0  02:21      1.77    1.89    1.00
  CC-R1                PUMP       683.00     0  00:00              1.00
  CC-R2                PUMP       683.00     0  00:00              1.00
  CC-S1                PUMP       200.00     0  00:00              1.00
  CC-S2                PUMP       200.00     0  00:00              1.00
  JK-R1                PUMP      1000.00     0  00:00              1.00
  JK-R2                PUMP      1000.00     0  00:00              1.00
  JK-S                 PUMP       300.00     0  00:00              1.00
  XR-1                 PUMP        95.00     0  00:00              1.00
  XR-2                 PUMP        95.00     0  00:00              1.00
  XR-3                 PUMP        95.00     0  00:00              1.00
  XR-4                 PUMP        95.00     0  00:00              1.00
  
  
  ***************************
  Flow Classification Summary
  ***************************
  
  -------------------------------------------------------------------------------------
                      Adjusted    ---------- Fraction of Time in Flow Class ---------- 
                       /Actual         Up    Down  Sub   Sup   Up    Down  Norm  Inlet 
  Conduit               Length    Dry  Dry   Dry   Crit  Crit  Crit  Crit  Ltd   Ctrl  
  -------------------------------------------------------------------------------------
  1                       1.00   0.00  0.00  0.00  0.00  1.00  0.00  0.00  0.20  0.00
  WS02001211WS02001212    1.00   0.00  0.00  0.00  1.00  0.00  0.00  0.00  0.00  0.00
  WS02001212WS02001213    1.00   0.00  0.00  0.00  0.34  0.00  0.66  0.00  0.00  0.00
  WS02001213WS02003059    1.00   0.00  0.00  0.00  0.99  0.00  0.00  0.00  0.00  0.00
  WS02003059WS02003060    1.00   0.00  0.00  0.00  1.00  0.00  0.00  0.00  0.00  0.00
  WS02003060WS02003069    1.00   0.00  0.00  0.00  0.99  0.01  0.00  0.00  0.00  0.00
  WS02003066WSF200        1.00   0.02  0.10  0.00  0.00  0.88  0.00  0.00  0.87  0.00
  WS02003067WS02003066    1.00   0.10  0.02  0.00  0.89  0.00  0.00  0.00  0.00  0.00
  WS02003069WS02003072    1.00   0.00  0.00  0.00  0.99  0.01  0.00  0.00  0.00  0.00
  WS02003072WS02003073    1.00   0.00  0.00  0.00  0.00  0.00  0.00  1.00  0.00  0.00
  WS02004138WS02004139    1.00   0.00  0.00  0.00  0.99  0.01  0.00  0.00  1.00  0.00
  WS02004139WS02001211    1.00   0.00  0.00  0.00  1.00  0.00  0.00  0.00  0.00  0.00
  WS02004401WS02004402    1.00   0.02  0.00  0.00  0.98  0.00  0.00  0.00  0.00  0.00
  WS02004402WS02004403    1.00   0.02  0.00  0.00  0.98  0.00  0.00  0.00  0.00  0.00
  WS02004403WS02004404    1.00   0.00  0.03  0.00  0.97  0.00  0.00  0.00  0.00  0.00
  WS02004404WS02004405    1.00   0.00  0.00  0.00  1.00  0.00  0.00  0.00  0.00  0.00
  WS02004405WS02004406    1.00   0.00  0.00  0.00  1.00  0.00  0.00  0.00  0.00  0.00
  WS02004406WS02004407    1.00   0.00  0.05  0.00  0.95  0.00  0.00  0.00  0.00  0.00
  WS02004407WS02004409    1.00   0.05  0.00  0.00  0.94  0.01  0.00  0.00  0.94  0.00
  WS02004409WS02004410    1.00   0.05  0.00  0.00  0.95  0.00  0.00  0.00  0.02  0.00
  WS02004410WS02004411    1.00   0.05  0.00  0.00  0.95  0.00  0.00  0.00  0.00  0.00
  WS02004411WS02004412    1.00   0.05  0.00  0.00  0.95  0.00  0.00  0.00  0.00  0.00
  WS02004412WS02004413    1.00   0.05  0.00  0.00  0.94  0.00  0.00  0.00  0.01  0.00
  WS02004413WS02003067    1.00   0.06  0.04  0.00  0.00  0.00  0.90  0.00  0.00  0.00
  WS02006109WS02006110    1.00   0.00  0.01  0.00  0.98  0.00  0.01  0.00  0.00  0.00
  WS02006110WS02006113    1.00   0.01  0.01  0.00  0.98  0.00  0.00  0.00  0.00  0.00
  WS02006111WS02006112    1.00   0.02  0.00  0.00  0.98  0.00  0.00  0.00  0.98  0.00
  WS02006112WS02006115    1.00   0.02  0.00  0.00  0.97  0.00  0.00  0.00  0.00  0.00
  WS02006113WS02006111    1.00   0.02  0.00  0.00  0.00  0.98  0.00  0.00  0.10  0.00
  WS02006115WS02006116    1.00   0.02  0.00  0.00  0.97  0.00  0.00  0.01  0.00  0.00
  WS02006116WS02004401    1.00   0.02  0.00  0.00  0.98  0.00  0.00  0.00  0.00  0.00
  WS02006228WS02006109    1.00   0.00  0.00  0.00  1.00  0.00  0.00  0.00  0.00  0.00
  WS02006229WS02006228    1.00   0.00  0.00  0.00  0.99  0.00  0.00  0.01  0.00  0.00
  WS02006230WS02006229    1.00   0.00  0.00  0.00  0.99  0.00  0.00  0.01  0.00  0.00
  WS02006231WS02006230    1.00   0.00  0.00  0.00  0.20  0.00  0.80  0.00  0.00  0.00
  WS02006232WS02006231    1.00   0.00  0.00  0.00  0.99  0.00  0.01  0.00  0.00  0.00
  WS02006234WS02006232    1.00   0.00  0.00  0.00  1.00  0.00  0.00  0.00  0.55  0.00
  WS02006235WS02006234    1.00   0.00  0.00  0.00  0.41  0.00  0.59  0.00  0.00  0.00
  WS02006238WS02006235    1.00   0.00  0.00  0.00  1.00  0.00  0.00  0.00  0.00  0.00
  WS02006239WS02006238    1.00   0.00  0.00  0.00  1.00  0.00  0.00  0.00  0.65  0.00
  WS02006240WS02006239    1.00   0.00  0.00  0.00  0.32  0.00  0.00  0.68  0.01  0.00
  WS02006242WS02006240    1.00   0.00  0.00  0.00  0.99  0.00  0.01  0.00  0.00  0.00
  WS02006243WS02006242    1.00   0.00  0.00  0.00  0.99  0.00  0.00  0.01  0.73  0.00
  WS02006245WS02006243    1.00   0.00  0.00  0.00  0.37  0.00  0.00  0.63  0.00  0.00
  WS02006247WS02006245    1.00   0.00  0.00  0.00  0.99  0.00  0.00  0.01  0.00  0.00
  WS02006248WS02006247    1.00   0.00  0.00  0.00  0.99  0.00  0.00  0.01  0.12  0.00
  WS02006249WS02006248    1.00   0.00  0.00  0.00  0.27  0.00  0.73  0.00  0.00  0.00
  WS02006251WS02006249    1.00   0.00  0.00  0.00  1.00  0.00  0.00  0.00  0.74  0.00
  WS02006252WS02006251    1.00   0.00  0.77  0.00  0.00  0.00  0.23  0.00  0.01  0.00
  WS02006256WS02006235    1.00   0.00  0.00  0.00  1.00  0.00  0.00  0.00  0.00  0.00
  WSF200WS02003060        1.00   0.00  0.02  0.00  0.98  0.00  0.00  0.00  0.72  0.00
  YS02001580YS02001583    1.00   0.29  0.56  0.00  0.15  0.00  0.00  0.00  0.65  0.00
  YS02001583YS02001586    1.00   0.49  0.30  0.00  0.20  0.00  0.00  0.00  0.65  0.00
  YS02001586YS02001590    1.00   0.13  0.00  0.00  0.38  0.04  0.00  0.45  0.36  0.00
  YS02001590YS02001593    1.00   0.13  0.01  0.00  0.08  0.00  0.79  0.00  0.00  0.00
  YS02001593YS02001596    1.00   0.14  0.00  0.00  0.10  0.01  0.00  0.75  0.03  0.00
  YS02001596YS02001600    1.00   0.14  0.00  0.00  0.76  0.01  0.00  0.10  0.10  0.00
  YS02001600YS02001601    1.00   0.13  0.01  0.00  0.86  0.00  0.00  0.00  0.07  0.00
  YS02001601YS02001602    1.00   0.13  0.01  0.00  0.86  0.00  0.00  0.00  0.00  0.00
  YS02001602YS02001605    1.00   0.14  0.00  0.00  0.86  0.00  0.00  0.00  0.00  0.00
  YS02001605YS02001607    1.00   0.14  0.00  0.00  0.86  0.00  0.00  0.00  0.00  0.00
  YS02001607YS02001610    1.00   0.13  0.01  0.00  0.86  0.00  0.00  0.00  0.02  0.00
  YS02001610YS02001613    1.00   0.13  0.00  0.00  0.87  0.00  0.00  0.00  0.01  0.00
  YS02001613YS02001616    1.00   0.13  0.00  0.00  0.87  0.00  0.00  0.00  0.01  0.00
  YS02001616YS02001619    1.00   0.13  0.00  0.00  0.87  0.00  0.00  0.00  0.00  0.00
  YS02001619YS02001622    1.00   0.13  0.00  0.00  0.87  0.00  0.00  0.00  0.00  0.00
  YS02001622YS02001625    1.00   0.13  0.00  0.00  0.87  0.00  0.00  0.00  0.06  0.00
  YS02001625YS02001629    1.00   0.13  0.06  0.00  0.73  0.00  0.07  0.00  0.00  0.00
  YS02001629YS02163301    1.00   0.17  0.01  0.00  0.82  0.00  0.00  0.00  0.00  0.00
  YS02001633YS02163601    1.00   0.00  0.01  0.00  0.99  0.00  0.00  0.00  0.16  0.00
  YS02001641YS02001644    1.00   0.00  0.01  0.00  0.99  0.00  0.00  0.00  0.00  0.00
  YS02001644YS02001647    1.00   0.00  0.19  0.00  0.81  0.00  0.00  0.00  0.00  0.00
  YS02001647YS02001649    1.00   0.00  0.19  0.00  0.76  0.05  0.00  0.00  0.02  0.00
  YS02001649YS02001757    1.00   0.00  0.00  0.00  0.94  0.06  0.00  0.00  0.20  0.00
  YS02001652YS02001649    1.00   0.00  0.00  0.00  0.95  0.05  0.00  0.00  0.21  0.00
  YS02001655YS02001652    1.00   0.00  0.00  0.00  0.73  0.01  0.00  0.26  0.02  0.00
  YS02001658YS02001655    1.00   0.00  0.15  0.00  0.71  0.14  0.00  0.00  0.10  0.00
  YS02001661YS02001658    1.00   0.15  0.00  0.00  0.70  0.15  0.00  0.00  0.22  0.00
  YS02001664YS02001661    1.00   0.13  0.00  0.00  0.80  0.07  0.00  0.00  0.86  0.00
  YS02001745YS02001748    1.00   0.00  0.00  0.00  0.70  0.00  0.00  0.30  0.45  0.00
  YS02001748YS02001751    1.00   0.00  0.00  0.00  0.87  0.13  0.00  0.00  0.14  0.00
  YS02001751YS02001754    1.00   0.00  0.00  0.00  0.72  0.00  0.00  0.28  0.01  0.00
  YS02001754YS02001757    1.00   0.00  0.00  0.00  1.00  0.00  0.00  0.00  0.27  0.00
  YS02001757CaochengTiaoxuchi    1.00   0.00  0.00  0.00  0.97  0.03  0.00  0.00  0.25  0.00
  YS02001759YS02001757    1.00   0.00  0.00  0.00  1.00  0.00  0.00  0.00  0.09  0.00
  YS02001762YS02001759    1.00   0.00  0.00  0.00  1.00  0.00  0.00  0.00  0.06  0.00
  YS02001765YS02001762    1.00   0.00  0.00  0.00  1.00  0.00  0.00  0.00  0.18  0.00
  YS02001767YS02001765    1.00   0.00  0.00  0.00  1.00  0.00  0.00  0.00  0.00  0.00
  YS02001770YS02001767    1.00   0.00  0.00  0.00  1.00  0.00  0.00  0.00  0.00  0.00
  YS02001774YS02001770    1.00   0.00  0.14  0.00  0.86  0.00  0.00  0.00  0.04  0.00
  YS02001779YS02001774    1.00   0.00  0.00  0.00  1.00  0.00  0.00  0.00  0.21  0.00
  YS02001783YS02001784    1.00   0.00  0.20  0.00  0.80  0.00  0.00  0.00  0.01  0.00
  YS02001784YS02001785    1.00   0.00  0.00  0.00  1.00  0.00  0.00  0.00  0.19  0.00
  YS02001786YS02001788    1.00   0.00  0.00  0.00  0.94  0.06  0.00  0.00  0.00  0.00
  YS02001788YS02001790    1.00   0.00  0.00  0.00  0.93  0.07  0.00  0.00  0.22  0.00
  YS02001790YS02001791    1.00   0.00  0.00  0.00  0.74  0.26  0.00  0.00  0.04  0.00
  YS02001791YS02001793    1.00   0.00  0.00  0.00  0.73  0.27  0.00  0.00  0.00  0.00
  YS02001793JiankangQianchi    1.00   0.00  0.00  0.00  0.94  0.06  0.00  0.00  0.24  0.00
  YS02001882YS02001884    1.00   0.16  0.01  0.00  0.83  0.00  0.00  0.00  0.00  0.00
  YS02001884YS02001887    1.00   0.06  0.05  0.00  0.89  0.00  0.00  0.00  0.00  0.00
  YS02001887YS02001890    1.00   0.00  0.00  0.00  0.97  0.00  0.03  0.00  0.00  0.00
  YS02001890YS02001895    1.00   0.00  0.18  0.00  0.82  0.00  0.00  0.00  0.00  0.00
  YS02001895YS02001898    1.00   0.18  0.00  0.00  0.80  0.00  0.02  0.00  0.00  0.00
  YS02001898YS02001901    1.00   0.18  0.01  0.00  0.81  0.00  0.00  0.00  0.01  0.00
  YS02001901YS02001904    1.00   0.18  0.00  0.00  0.82  0.00  0.00  0.00  0.00  0.00
  YS02001904YS02001907    1.00   0.00  0.18  0.00  0.82  0.00  0.00  0.00  0.00  0.00
  YS02001907YS02006553    1.00   0.00  0.02  0.00  0.98  0.00  0.00  0.00  0.00  0.00
  YS02001910YS02001907    1.00   0.00  0.00  0.00  0.97  0.00  0.00  0.03  0.12  0.00
  YS02001915YS02001910    1.00   0.00  0.00  0.00  0.96  0.04  0.00  0.00  0.18  0.00
  YS02001918YS02001915    1.00   0.00  0.01  0.00  0.98  0.02  0.00  0.00  0.79  0.00
  YS02001920YS02001918    1.00   0.00  0.01  0.00  0.99  0.00  0.00  0.00  0.00  0.00
  YS02001923YS02001920    1.00   0.00  0.00  0.00  1.00  0.00  0.00  0.00  0.95  0.00
  YS02001926YS02001923    1.00   0.00  0.07  0.00  0.04  0.00  0.89  0.00  0.00  0.00
  YS02001929YS02001926    1.00   0.00  0.13  0.00  0.87  0.00  0.00  0.00  0.84  0.00
  YS02006553YS02006556    1.00   0.01  0.00  0.00  0.99  0.00  0.00  0.00  0.03  0.00
  YS02006556YS02006558    1.00   0.00  0.00  0.00  1.00  0.00  0.00  0.00  0.00  0.00
  YS02006558YS02006561    1.00   0.20  0.00  0.00  0.05  0.75  0.00  0.00  0.17  0.00
  YS02006561YS02001783    1.00   0.20  0.00  0.00  0.72  0.08  0.00  0.00  0.72  0.00
  YS02163301YS02001633    1.00   0.00  0.17  0.00  0.83  0.00  0.00  0.00  0.00  0.00
  YS02163601YS02164001    1.00   0.00  0.08  0.00  0.92  0.00  0.00  0.00  0.00  0.00
  YS02164001YS02001641    1.00   0.01  0.07  0.00  0.92  0.00  0.00  0.00  0.06  0.00
  
  
  *************************
  Conduit Surcharge Summary
  *************************
  
  ----------------------------------------------------------------------------
                                                           Hours        Hours 
                         --------- Hours Full --------   Above Full   Capacity
  Conduit                Both Ends  Upstream  Dnstream   Normal Flow   Limited
  ----------------------------------------------------------------------------
  WS02003072WS02003073        0.01      0.01      0.01      2.14         0.01
  WS02004404WS02004405        0.01      0.01      0.01      1.99         0.01
  WS02006109WS02006110        0.01      0.01      1.44      0.01         0.01
  WS02006110WS02006113        0.01      0.01      1.37      0.01         0.01
  WS02006111WS02006112        0.01      0.01      1.60      0.01         0.01
  WS02006228WS02006109        1.32      1.44      1.32      1.75         1.32
  WS02006229WS02006228        1.29      1.33      1.29      1.63         1.29
  WS02006230WS02006229        1.53      1.59      1.53      2.26         1.53
  WS02006231WS02006230        0.01      0.01      0.01      2.12         0.01
  WS02006232WS02006231        0.01      0.01      1.44      0.01         0.01
  WS02006234WS02006232        1.24      1.24      1.44      0.01         0.01
  WS02006235WS02006234        0.01      0.01      1.34      2.03         0.01
  WS02006238WS02006235        1.35      1.35      1.46      0.01         0.01
  WS02006239WS02006238        1.38      1.44      1.38      1.67         1.38
  WS02006240WS02006239        1.35      1.37      1.35      1.69         1.35
  WS02006242WS02006240        1.35      1.35      1.55      1.76         0.01
  WS02006243WS02006242        1.40      1.40      1.50      0.01         0.01
  WS02006245WS02006243        1.38      1.40      1.38      1.75         1.38
  WS02006247WS02006245        1.38      1.43      1.38      1.84         1.38
  WS02006248WS02006247        1.39      1.39      1.41      0.01         0.01
  WS02006249WS02006248        1.37      1.37      1.41      1.83         0.01
  WS02006251WS02006249        1.40      1.42      1.41      1.81         1.40
  WS02006252WS02006251        1.84      1.84      1.84      1.84         0.01
  WS02006256WS02006235        2.07      2.07      2.83      0.02         0.01
  YS02001580YS02001583        0.33      0.33      0.36      0.01         0.01
  YS02001583YS02001586        0.33      0.33      0.44      0.01         0.01
  YS02001586YS02001590        0.45      0.45      0.50      0.01         0.01
  YS02001590YS02001593        0.50      0.50      0.52      0.51         0.01
  YS02001593YS02001596        0.51      0.51      0.61      0.01         0.01
  YS02001596YS02001600        0.66      0.66      0.77      0.01         0.01
  YS02001600YS02001601        0.85      0.85      5.89      0.01         0.01
  YS02001601YS02001602        5.05      5.05      5.98      0.70         0.01
  YS02001602YS02001605        4.93      4.93      5.05      1.87         0.01
  YS02001605YS02001607        4.90      4.93      5.83      0.94         0.82
  YS02001607YS02001610        0.52      0.52      0.56      0.01         0.01
  YS02001610YS02001613        0.52      0.52      0.56      0.01         0.01
  YS02001613YS02001616        0.48      0.48      0.52      0.01         0.01
  YS02001616YS02001619        0.46      0.46      0.48      0.01         0.01
  YS02001619YS02001622        0.46      0.46      0.47      0.46         0.40
  YS02001622YS02001625        0.47      0.47      0.77      0.01         0.01
  YS02001625YS02001629        0.42      0.42      0.77      0.01         0.01
  YS02001629YS02163301        0.86      0.86      3.48      0.06         0.10
  YS02001633YS02163601        5.54      5.54      5.74      0.26         0.25
  YS02001641YS02001644        5.70      5.71      5.70      1.02         0.75
  YS02001644YS02001647        0.48      0.48      5.70      0.03         0.01
  YS02001647YS02001649        0.48      0.48      5.64      0.01         0.01
  YS02001649YS02001757        5.63      5.64      5.63      0.11         0.08
  YS02001652YS02001649        0.41      0.41      5.64      0.01         0.01
  YS02001655YS02001652        0.17      0.17      0.35      0.01         0.01
  YS02001658YS02001655        0.06      0.06      0.17      0.01         0.01
  YS02001661YS02001658        0.01      0.01      0.06      0.01         0.01
  YS02001664YS02001661        0.01      0.01      0.01      0.01         0.01
  YS02001745YS02001748        0.01      0.01      0.01      0.01         0.01
  YS02001748YS02001751        0.03      0.03      0.09      0.01         0.01
  YS02001751YS02001754        0.09      0.09      0.23      0.01         0.01
  YS02001754YS02001757        0.28      0.28      5.63      0.01         0.01
  YS02001757CaochengTiaoxuchi        5.62      5.63      5.62      0.20         0.16
  YS02001759YS02001757        5.63      5.63      5.63      0.01         0.01
  YS02001762YS02001759        5.63      5.63      5.63      0.01         0.01
  YS02001765YS02001762        5.62      5.62      5.63      0.01         0.01
  YS02001767YS02001765        5.12      5.12      5.62      0.01         0.02
  YS02001770YS02001767        4.92      4.92      5.12      0.30         0.31
  YS02001774YS02001770        2.02      2.02      5.62      0.01         0.01
  YS02001779YS02001774        0.21      0.21      5.62      0.01         0.01
  YS02001783YS02001784        0.50      0.50      0.50      0.38         0.40
  YS02001784YS02001785        0.50      0.50      0.50      0.60         0.50
  YS02001786YS02001788        0.50      0.50      0.50      0.52         0.50
  YS02001788YS02001790        0.50      0.50      5.77      0.01         0.01
  YS02001790YS02001791        5.77      5.77      5.78      0.21         0.21
  YS02001791YS02001793        5.78      5.78      5.81      0.01         0.01
  YS02001793JiankangQianchi        5.80      5.80      6.10      0.01         0.01
  YS02001882YS02001884        0.30      0.30      0.31      0.01         0.01
  YS02001884YS02001887        0.33      0.33      0.34      0.01         0.01
  YS02001887YS02001890        0.35      0.35      0.36      0.01         0.01
  YS02001890YS02001895        0.29      0.29      0.37      0.01         0.01
  YS02001895YS02001898        0.29      0.29      0.29      0.01         0.01
  YS02001898YS02001901        0.29      0.29      0.33      0.01         0.01
  YS02001901YS02001904        0.32      0.32      0.33      0.01         0.01
  YS02001904YS02001907        0.32      0.32      0.52      0.01         0.01
  YS02001907YS02006553        0.61      0.61      0.66      0.01         0.01
  YS02001910YS02001907        0.37      0.37      0.51      0.01         0.01
  YS02001915YS02001910        0.30      0.30      0.37      0.01         0.01
  YS02001918YS02001915        0.22      0.22      0.30      0.01         0.01
  YS02001920YS02001918        0.22      0.22      0.24      0.01         0.01
  YS02001923YS02001920        0.18      0.18      0.24      0.01         0.01
  YS02001926YS02001923        0.01      0.01      0.01      0.01         0.01
  YS02001929YS02001926        0.01      0.01      0.01      0.01         0.01
  YS02006553YS02006556        0.44      0.44      0.52      0.01         0.01
  YS02006556YS02006558        0.48      0.48      0.53      0.01         0.01
  YS02006558YS02006561        0.33      0.43      0.33      0.58         0.33
  YS02006561YS02001783        0.26      0.26      0.50      0.01         0.01
  YS02163301YS02001633        3.48      3.48      5.72      0.01         0.01
  YS02163601YS02164001        5.66      5.66      5.74      0.08         0.01
  YS02164001YS02001641        5.66      5.66      5.71      0.48         0.43
  
  
  ***************
  Pumping Summary
  ***************
  
  ---------------------------------------------------------------------------------------------------------
                                                  Min       Avg       Max     Total     Power    % Time Off
                        Percent   Number of      Flow      Flow      Flow    Volume     Usage    Pump Curve
  Pump                 Utilized   Start-Ups       LPS       LPS       LPS  10^6 ltr     Kw-hr    Low   High
  ---------------------------------------------------------------------------------------------------------
  CC-R1                    1.06           1      0.00    683.00    683.00     0.208      3.51    0.0  100.0
  CC-R2                    1.06           1      0.00    683.00    683.00     0.208      3.51    0.0  100.0
  CC-S1                   23.02           3      0.00    200.00    200.00     1.326      7.31    0.0   17.4
  CC-S2                   23.02           3      0.00    200.00    200.00     1.326      7.31    0.0   17.4
  JK-R1                    0.97           2      0.00    347.46   1000.00     0.078      0.47    0.0    0.0
  JK-R2                    0.97           2      0.00    347.46   1000.00     0.078      0.47    0.0    0.0
  JK-S                     0.97           2      0.00    104.30    300.00     0.023      0.44    0.0    0.0
  XR-1                   100.00           1      0.00     95.00     95.00     2.736     68.18    0.0    0.0
  XR-2                   100.00           1      0.00     95.00     95.00     2.736     68.18    0.0    0.0
  XR-3                   100.00           1      0.00     95.00     95.00     2.736     68.18    0.0    0.0
  XR-4                   100.00           1      0.00     95.00     95.00     2.736     68.18    0.0    0.0
  

  Analysis begun on:  Wed Nov  5 16:28:36 2025
  Analysis ended on:  Wed Nov  5 16:28:39 2025
  Total elapsed time: 00:00:03