
  EPA STORM WATER MANAGEMENT MODEL - VERSION 5.2 (Build 5.2.4)
  PYSWMM TOOLKIT API - VERSION v1.0 (2023-11-27)
  ------------------------------------------------------------

  WARNING 04: minimum elevation drop used for Conduit WS02004404WS02004405
  WARNING 03: negative offset ignored for Link YS02001904YS02001907
  
  ****************
  Analysis Options
  ****************
  Flow Units ............... LPS
  Process Models:
    Rainfall/Runoff ........ YES
    RDII ................... NO
    Snowmelt ............... NO
    Groundwater ............ NO
    Flow Routing ........... YES
    Ponding Allowed ........ NO
    Water Quality .......... NO
  Infiltration Method ...... HORTON
  Flow Routing Method ...... DYNWAVE
  Surcharge Method ......... EXTRAN
  Starting Date ............ 08/28/2015 08:00:00
  Ending Date .............. 08/28/2015 16:00:00
  Antecedent Dry Days ...... 8.0
  Report Time Step ......... 00:01:00
  Wet Time Step ............ 00:01:00
  Dry Time Step ............ 00:01:00
  Routing Time Step ........ 30.00 sec
  Variable Time Step ....... YES
  Maximum Trials ........... 8
  Number of Threads ........ 4
  Head Tolerance ........... 0.001500 m
  
  
  **************************        Volume         Depth
  Runoff Quantity Continuity     hectare-m            mm
  **************************     ---------       -------
  Initial LID Storage ......         0.049         1.488
  Total Precipitation ......         2.024        61.026
  Evaporation Loss .........         0.000         0.000
  Infiltration Loss ........         0.076         2.292
  Surface Runoff ...........         1.496        45.104
  Final Storage ............         0.502        15.140
  Continuity Error (%) .....        -0.037
  
  
  **************************        Volume        Volume
  Flow Routing Continuity        hectare-m      10^6 ltr
  **************************     ---------     ---------
  Dry Weather Inflow .......         0.602         6.020
  Wet Weather Inflow .......         1.496        14.962
  Groundwater Inflow .......         0.000         0.000
  RDII Inflow ..............         0.000         0.000
  External Inflow ..........         0.105         1.045
  External Outflow .........         1.519        15.190
  Flooding Loss ............         0.621         6.209
  Evaporation Loss .........         0.000         0.000
  Exfiltration Loss ........         0.000         0.000
  Initial Stored Volume ....         0.303         3.031
  Final Stored Volume ......         0.823         8.231
  Continuity Error (%) .....       -18.249
  
  
  *************************
  Highest Continuity Errors
  *************************
  Node YS02001774 (37.83%)
  Node YS02001583 (-11.21%)
  Node WS02006256 (-6.05%)
  Node YS02001884 (5.30%)
  Node YS02001754 (3.86%)
  
  
  ***************************
  Time-Step Critical Elements
  ***************************
  Link WS02001212WS02001213 (35.11%)
  Link WS02006235WS02006234 (22.19%)
  Link WS02006238WS02006235 (14.53%)
  Link YS02006556YS02006558 (6.18%)
  Link WS02003066WSF200 (5.59%)
  
  
  ********************************
  Highest Flow Instability Indexes
  ********************************
  Link WS02006113WS02006111 (41)
  Link WS02006238WS02006235 (35)
  Link WS02006111WS02006112 (34)
  Link WS02006256WS02006235 (30)
  Link WS02006239WS02006238 (26)
  
  
  *********************************
  Most Frequent Nonconverging Nodes
  *********************************
  Node CC-1 (19.14%)
  Node CC-2 (19.14%)
  Node JK-1 (19.14%)
  Node JK-2 (19.14%)
  Node WSC (19.14%)
  
  
  *************************
  Routing Time Step Summary
  *************************
  Minimum Time Step           :     0.02 sec
  Average Time Step           :     3.83 sec
  Maximum Time Step           :     6.46 sec
  % of Time in Steady State   :     0.00
  Average Iterations per Step :     3.63
  % of Steps Not Converging   :    19.14
  Time Step Frequencies       :
     30.000 - 13.228 sec      :     0.00 %
     13.228 -  5.833 sec      :    33.91 %
      5.833 -  2.572 sec      :    39.06 %
      2.572 -  1.134 sec      :    21.05 %
      1.134 -  0.500 sec      :     5.98 %
  
  
  ***************************
  Subcatchment Runoff Summary
  ***************************
  
  ------------------------------------------------------------------------------------------------------------------------------
                            Total      Total      Total      Total     Imperv       Perv      Total       Total     Peak  Runoff
                           Precip      Runon       Evap      Infil     Runoff     Runoff     Runoff      Runoff   Runoff   Coeff
  Subcatchment                 mm         mm         mm         mm         mm         mm         mm    10^6 ltr      LPS
  ------------------------------------------------------------------------------------------------------------------------------
  sub60                     61.03       0.00       0.00       1.38      40.52       4.27      44.79        0.59   379.05   0.734
  sub61                     61.03       0.00       0.00       2.11      40.48       6.37      46.85        0.86   550.44   0.768
  sub62                     61.03       0.00       0.00       0.94      43.16       2.90      46.06        1.26   751.18   0.755
  sub63                     61.03       0.00       0.00       3.85      34.68      10.64      45.32        1.03   610.60   0.743
  sub64                     61.03       0.00       0.00       1.85      39.48       5.28      44.76        1.08   609.67   0.734
  sub65                     61.03       0.00       0.00       1.70      42.61       4.82      47.43        1.31   710.23   0.777
  sub66                     61.03       0.00       0.00       4.45      33.53       9.58      43.11        2.01   903.26   0.706
  sub67                     61.03       0.00       0.00       0.93      44.25       3.00      47.25        0.88   588.40   0.774
  sub68                     61.03       0.00       0.00       1.62      39.08       4.89      43.96        1.21   749.44   0.720
  sub69                     61.03       0.00       0.00       1.47      41.03       5.78      46.81        1.73   922.83   0.767
  sub70                     61.03       0.00       0.00       4.88      32.87      12.10      44.97        1.30   524.15   0.737
  sub71                     61.03       0.00       0.00       0.86      39.21       2.63      41.83        1.09   619.63   0.685
  sub72                     61.03       0.00       0.00       0.82      42.35       2.44      44.79        0.62   317.23   0.734
  

  ***********************
  LID Performance Summary
  ***********************

  --------------------------------------------------------------------------------------------------------------------
                                         Total      Evap     Infil   Surface    Drain    Initial     Final  Continuity
                                        Inflow      Loss      Loss   Outflow   Outflow   Storage   Storage       Error
  Subcatchment      LID Control             mm        mm        mm        mm        mm        mm        mm           %
  --------------------------------------------------------------------------------------------------------------------
  sub60             GreenRoof            61.03      0.00      0.00      0.00      0.00      7.05     68.13       -0.09
  sub61             GreenRoof            61.03      0.00      0.00      0.00      0.00      7.05     68.13       -0.09
  sub62             GreenRoof            61.03      0.00      0.00      0.00      0.00      7.05     68.13       -0.09
  sub63             GreenRoof            61.03      0.00      0.00      0.00      0.00      7.05     68.13       -0.09
  sub64             GreenRoof            61.03      0.00      0.00      0.00      0.00      7.05     68.13       -0.09
  sub65             GreenRoof            61.03      0.00      0.00      0.00      0.00      7.05     68.13       -0.09
  sub66             GreenRoof            61.03      0.00      0.00      0.00      0.00      7.05     68.13       -0.09
  sub67             GreenRoof            61.03      0.00      0.00      0.00      0.00      7.05     68.13       -0.09
  sub68             GreenRoof            61.03      0.00      0.00      0.00      0.00      7.05     68.13       -0.09
  sub69             GreenRoof            61.03      0.00      0.00      0.00      0.00      7.05     68.13       -0.09
  sub70             GreenRoof            61.03      0.00      0.00      0.00      0.00      7.05     68.13       -0.09
  sub71             GreenRoof            61.03      0.00      0.00      0.00      0.00      7.05     68.13       -0.09
  sub72             GreenRoof            61.03      0.00      0.00      0.00      0.00      7.05     68.13       -0.09
  
  ******************
  Node Depth Summary
  ******************
  
  ---------------------------------------------------------------------------------
                                 Average  Maximum  Maximum  Time of Max    Reported
                                   Depth    Depth      HGL   Occurrence   Max Depth
  Node                 Type       Meters   Meters   Meters  days hr:min      Meters
  ---------------------------------------------------------------------------------
  WS02001211           JUNCTION     0.76     0.78     5.62     0  03:14        0.78
  WS02001212           JUNCTION     0.46     0.49     5.55     0  03:12        0.49
  WS02001213           JUNCTION     0.68     0.73     5.49     0  02:26        0.73
  WS02003059           JUNCTION     0.73     0.78     5.47     0  02:26        0.78
  WS02003060           JUNCTION     0.38     0.47     5.41     0  02:25        0.47
  WS02003066           JUNCTION     0.16     0.27     5.82     0  02:25        0.27
  WS02003067           JUNCTION     0.43     0.65     5.97     0  02:24        0.65
  WS02003069           JUNCTION     0.43     0.54     5.12     0  02:26        0.54
  WS02003072           JUNCTION     0.49     0.60     4.97     0  02:26        0.60
  WS02003073           JUNCTION     0.29     0.37     4.43     0  02:27        0.37
  WS02004138           JUNCTION     0.19     0.20     7.45     0  00:00        0.19
  WS02004139           JUNCTION     0.71     0.73     5.64     0  03:13        0.73
  WS02004401           JUNCTION     0.52     0.75     6.75     0  02:21        0.75
  WS02004402           JUNCTION     0.55     0.78     6.74     0  02:22        0.78
  WS02004403           JUNCTION     0.57     0.80     6.73     0  02:22        0.80
  WS02004404           JUNCTION     0.65     0.88     6.73     0  02:22        0.88
  WS02004405           JUNCTION     0.65     0.88     6.73     0  02:22        0.87
  WS02004406           JUNCTION     0.66     0.88     6.71     0  02:22        0.88
  WS02004407           JUNCTION     0.14     0.26     6.57     0  02:23        0.26
  WS02004409           JUNCTION     0.31     0.58     6.35     0  02:23        0.57
  WS02004410           JUNCTION     0.34     0.59     6.31     0  02:23        0.59
  WS02004411           JUNCTION     0.36     0.61     6.29     0  02:23        0.61
  WS02004412           JUNCTION     0.38     0.62     6.26     0  02:24        0.62
  WS02004413           JUNCTION     0.54     0.79     6.26     0  02:24        0.79
  WS02006109           JUNCTION     0.57     0.84     7.46     0  02:09        0.84
  WS02006110           JUNCTION     0.58     0.82     7.41     0  02:09        0.82
  WS02006111           JUNCTION     0.15     0.25     6.96     0  02:21        0.25
  WS02006112           JUNCTION     0.67     0.93     6.82     0  02:20        0.93
  WS02006113           JUNCTION     0.22     0.39     7.29     0  02:07        0.39
  WS02006115           JUNCTION     0.40     0.65     6.78     0  02:21        0.65
  WS02006116           JUNCTION     0.49     0.73     6.77     0  02:21        0.73
  WS02006228           JUNCTION     0.56     0.85     7.50     0  02:04        0.85
  WS02006229           JUNCTION     0.53     0.83     7.52     0  02:07        0.83
  WS02006230           JUNCTION     0.52     0.86     7.60     0  02:32        0.86
  WS02006231           JUNCTION     0.31     0.60     7.72     0  02:31        0.60
  WS02006232           JUNCTION     0.43     0.75     7.79     0  01:52        0.75
  WS02006234           JUNCTION     0.35     0.71     7.87     0  02:18        0.71
  WS02006235           JUNCTION     0.39     0.77     7.93     0  02:18        0.76
  WS02006238           JUNCTION     0.41     0.81     7.95     0  02:37        0.80
  WS02006239           JUNCTION     0.39     0.81     8.02     0  02:04        0.80
  WS02006240           JUNCTION     0.38     0.79     8.08     0  02:29        0.79
  WS02006242           JUNCTION     0.45     0.91     8.18     0  02:04        0.90
  WS02006243           JUNCTION     0.39     0.84     8.26     0  02:31        0.84
  WS02006245           JUNCTION     0.39     0.86     8.35     0  01:52        0.86
  WS02006247           JUNCTION     0.41     0.89     8.39     0  02:30        0.89
  WS02006248           JUNCTION     0.39     0.86     8.45     0  02:03        0.86
  WS02006249           JUNCTION     0.41     0.90     8.50     0  02:19        0.90
  WS02006251           JUNCTION     0.41     0.91     8.58     0  02:30        0.91
  WS02006252           JUNCTION     0.27     1.50     9.74     0  00:00        0.59
  WS02006256           JUNCTION     0.62     2.35     9.28     0  00:00        2.35
  WSF200               JUNCTION     0.13     0.25     5.48     0  02:25        0.25
  YS02001580           JUNCTION     0.11     1.05     9.59     0  01:46        0.77
  YS02001583           JUNCTION     0.14     1.14     9.64     0  01:46        0.82
  YS02001586           JUNCTION     0.23     1.13     9.30     0  01:46        1.13
  YS02001590           JUNCTION     0.33     1.40     9.26     0  01:46        1.38
  YS02001593           JUNCTION     0.27     1.38     9.25     0  01:46        1.28
  YS02001596           JUNCTION     0.55     1.72     9.14     0  01:46        1.67
  YS02001600           JUNCTION     0.78     1.87     9.00     0  01:45        1.87
  YS02001601           JUNCTION     1.03     2.06     8.90     0  01:45        2.06
  YS02001602           JUNCTION     0.94     1.87     8.77     0  01:46        1.87
  YS02001605           JUNCTION     0.90     1.78     8.68     0  01:54        1.78
  YS02001607           JUNCTION     0.89     1.68     8.53     0  02:12        1.68
  YS02001610           JUNCTION     0.94     1.68     8.48     0  01:46        1.68
  YS02001613           JUNCTION     0.90     1.70     8.54     0  02:19        1.70
  YS02001616           JUNCTION     0.83     1.61     8.52     0  02:19        1.61
  YS02001619           JUNCTION     0.82     1.61     8.54     0  01:49        1.61
  YS02001622           JUNCTION     0.82     1.62     8.52     0  02:19        1.62
  YS02001625           JUNCTION     1.07     1.78     8.38     0  01:46        1.78
  YS02001629           JUNCTION     1.10     1.85     8.40     0  01:46        1.85
  YS02001633           JUNCTION     1.18     2.08     8.53     0  01:49        2.08
  YS02001641           JUNCTION     1.16     2.10     8.54     0  02:12        2.10
  YS02001644           JUNCTION     1.15     1.92     8.35     0  01:48        1.92
  YS02001647           JUNCTION     0.97     1.79     8.40     0  01:50        1.79
  YS02001649           JUNCTION     1.13     1.96     8.35     0  01:50        1.87
  YS02001652           JUNCTION     0.95     1.94     8.54     0  01:50        1.94
  YS02001655           JUNCTION     0.76     2.16     9.01     0  01:50        2.16
  YS02001658           JUNCTION     0.54     2.24     9.39     0  01:50        2.24
  YS02001661           JUNCTION     0.35     1.05     8.46     0  01:51        1.05
  YS02001664           JUNCTION     0.06     0.51     8.44     0  01:50        0.36
  YS02001745           JUNCTION     0.23     0.77     8.29     0  01:50        0.74
  YS02001748           JUNCTION     0.57     1.58     8.65     0  01:50        1.04
  YS02001751           JUNCTION     0.71     1.89     8.77     0  02:11        1.89
  YS02001754           JUNCTION     0.92     1.81     8.41     0  02:11        1.81
  YS02001757           JUNCTION     1.21     1.91     8.17     0  01:50        1.86
  YS02001759           JUNCTION     1.13     2.07     8.43     0  01:49        2.07
  YS02001762           JUNCTION     1.10     2.05     8.45     0  01:49        2.05
  YS02001765           JUNCTION     1.06     1.95     8.40     0  01:49        1.95
  YS02001767           JUNCTION     1.03     1.87     8.36     0  01:49        1.87
  YS02001770           JUNCTION     1.04     1.92     8.41     0  01:50        1.86
  YS02001774           JUNCTION     1.10     1.98     8.40     0  01:50        1.93
  YS02001779           JUNCTION     0.87     1.68     8.37     0  01:48        1.68
  YS02001783           JUNCTION     0.50     1.65     7.79     0  01:48        1.48
  YS02001784           JUNCTION     0.55     1.71     7.78     0  01:48        1.42
  YS02001786           JUNCTION     0.55     1.95     7.98     0  01:48        1.26
  YS02001788           JUNCTION     0.55     1.84     7.82     0  01:48        1.13
  YS02001790           JUNCTION     0.79     1.96     7.60     0  01:48        1.29
  YS02001791           JUNCTION     0.89     1.68     7.15     0  01:48        1.27
  YS02001793           JUNCTION     1.35     1.98     6.81     0  01:48        1.84
  YS02001882           JUNCTION     0.33     1.74     8.45     0  01:47        1.64
  YS02001884           JUNCTION     0.42     1.81     8.43     0  01:47        1.74
  YS02001887           JUNCTION     0.49     1.85     8.39     0  01:47        1.81
  YS02001890           JUNCTION     0.52     1.81     8.32     0  01:47        1.81
  YS02001895           JUNCTION     0.30     1.60     8.35     0  01:48        1.56
  YS02001898           JUNCTION     0.31     1.62     8.35     0  01:48        1.57
  YS02001901           JUNCTION     0.42     1.71     8.32     0  01:48        1.67
  YS02001904           JUNCTION     0.40     1.66     8.29     0  01:48        1.64
  YS02001907           JUNCTION     0.71     1.96     8.25     0  01:48        1.96
  YS02001910           JUNCTION     0.51     2.00     8.51     0  01:49        1.91
  YS02001915           JUNCTION     0.33     1.95     8.66     0  01:49        1.80
  YS02001918           JUNCTION     0.17     1.81     8.88     0  01:49        1.45
  YS02001920           JUNCTION     0.25     2.14     9.15     0  01:49        1.45
  YS02001923           JUNCTION     0.13     2.03     9.29     0  01:49        1.17
  YS02001926           JUNCTION     0.16     1.90     9.35     0  01:49        1.00
  YS02001929           JUNCTION     0.09     1.78     9.47     0  01:49        0.95
  YS02006553           JUNCTION     0.71     2.02     8.30     0  01:48        1.99
  YS02006556           JUNCTION     0.68     2.02     8.33     0  01:48        1.98
  YS02006558           JUNCTION     0.73     2.06     8.32     0  01:48        2.02
  YS02006561           JUNCTION     0.19     1.37     8.03     0  01:48        1.09
  YS02163301           JUNCTION     1.12     2.03     8.55     0  02:12        2.03
  YS02163601           JUNCTION     1.21     2.08     8.48     0  01:49        2.08
  YS02164001           JUNCTION     1.15     2.10     8.56     0  02:12        2.10
  CC-1                 OUTFALL      0.00     0.00     0.00     0  00:00        0.00
  CC-2                 OUTFALL      0.00     0.00     0.00     0  00:00        0.00
  JK-1                 OUTFALL      0.00     0.00     0.00     0  00:00        0.00
  JK-2                 OUTFALL      0.00     0.00     0.00     0  00:00        0.00
  WSC                  OUTFALL      0.29     0.37     1.04     0  02:27        0.37
  CC-storage           STORAGE      1.78     2.30     7.80     0  02:30        2.30
  JK-storage           STORAGE      4.54     5.80     6.60     0  01:48        5.80
  XR-storage           STORAGE      0.31     5.00     3.00     0  00:00        4.91
  
  
  *******************
  Node Inflow Summary
  *******************
  
  -------------------------------------------------------------------------------------------------
                                  Maximum  Maximum                  Lateral       Total        Flow
                                  Lateral    Total  Time of Max      Inflow      Inflow     Balance
                                   Inflow   Inflow   Occurrence      Volume      Volume       Error
  Node                 Type           LPS      LPS  days hr:min    10^6 ltr    10^6 ltr     Percent
  -------------------------------------------------------------------------------------------------
  WS02001211           JUNCTION      7.35   389.13     0  03:39       0.212        11.1       0.348
  WS02001212           JUNCTION      0.00   390.84     0  03:41           0        11.1       0.207
  WS02001213           JUNCTION      0.00   392.61     0  03:40           0        11.1       0.238
  WS02003059           JUNCTION      0.00   395.65     0  03:40           0          11       0.328
  WS02003060           JUNCTION     16.53   816.08     0  02:25       0.476        14.7       0.147
  WS02003066           JUNCTION      0.00   411.90     0  02:25           0        3.19       0.037
  WS02003067           JUNCTION      0.00   411.89     0  02:24           0         3.2       0.125
  WS02003069           JUNCTION      0.32   816.37     0  02:25     0.00922        14.6       0.156
  WS02003072           JUNCTION      0.00   816.35     0  02:26           0        14.6       0.203
  WS02003073           JUNCTION      1.82   818.16     0  02:27      0.0524        14.6       0.217
  WS02004138           JUNCTION      0.00   380.00     0  00:00           0        10.9       0.059
  WS02004139           JUNCTION      0.32   395.52     0  00:00     0.00924        10.9       0.407
  WS02004401           JUNCTION      0.00   412.36     0  02:21           0         3.3       0.301
  WS02004402           JUNCTION      0.00   412.27     0  02:21           0        3.29       0.306
  WS02004403           JUNCTION      0.00   412.24     0  02:22           0        3.28       0.301
  WS02004404           JUNCTION      0.16   412.32     0  02:22     0.00467        3.27       0.251
  WS02004405           JUNCTION      0.04   412.35     0  02:22      0.0011        3.26       0.375
  WS02004406           JUNCTION      0.00   412.42     0  02:22           0        3.25       0.628
  WS02004407           JUNCTION      0.00   412.18     0  02:22           0        3.23       0.028
  WS02004409           JUNCTION      0.00   412.10     0  02:23           0        3.23       0.068
  WS02004410           JUNCTION      0.00   412.04     0  02:23           0        3.23       0.120
  WS02004411           JUNCTION      0.00   412.01     0  02:23           0        3.22       0.158
  WS02004412           JUNCTION      0.00   411.98     0  02:24           0        3.22       0.216
  WS02004413           JUNCTION      0.00   411.98     0  02:24           0        3.21       0.390
  WS02006109           JUNCTION      1.23   412.83     0  02:11      0.0354        3.34       0.235
  WS02006110           JUNCTION      0.00   411.93     0  02:10           0        3.33       0.187
  WS02006111           JUNCTION      0.00   423.27     0  02:57           0        3.32       0.027
  WS02006112           JUNCTION      0.00   413.74     0  02:21           0        3.32       0.526
  WS02006113           JUNCTION      0.00   412.02     0  02:19           0        3.33       0.040
  WS02006115           JUNCTION      0.00   412.48     0  02:21           0        3.31       0.188
  WS02006116           JUNCTION      0.00   412.42     0  02:21           0         3.3       0.136
  WS02006228           JUNCTION      0.00   413.26     0  02:12           0        3.31       0.083
  WS02006229           JUNCTION      0.00   411.16     0  02:12           0        3.31       0.139
  WS02006230           JUNCTION     10.28   410.69     0  02:19       0.296        3.32       0.180
  WS02006231           JUNCTION      0.00   400.51     0  02:18           0        3.02      -0.104
  WS02006232           JUNCTION      0.00   400.52     0  02:18           0        3.03       0.272
  WS02006234           JUNCTION      0.00   401.60     0  02:02           0        3.02      -0.180
  WS02006235           JUNCTION      0.00   402.11     0  02:30           0        3.04       0.240
  WS02006238           JUNCTION      0.00   402.96     0  02:09           0        3.02      -0.212
  WS02006239           JUNCTION      0.00   401.37     0  02:30           0           3      -0.161
  WS02006240           JUNCTION      0.00   401.19     0  02:08           0           3      -0.048
  WS02006242           JUNCTION      0.00   401.45     0  02:44           0           3       0.007
  WS02006243           JUNCTION      0.00   401.66     0  01:50           0           3       0.027
  WS02006245           JUNCTION      0.00   404.04     0  02:31           0        3.01       0.316
  WS02006247           JUNCTION      0.00   401.05     0  02:08           0        3.01       0.010
  WS02006248           JUNCTION      0.00   401.50     0  02:30           0        3.01       0.094
  WS02006249           JUNCTION      0.00   458.97     0  00:00           0        3.02       0.226
  WS02006251           JUNCTION      0.08   401.16     0  02:29     0.00222        3.02      -0.005
  WS02006252           JUNCTION      0.00   400.00     0  00:00           0        3.01      -0.031
  WS02006256           JUNCTION      0.00   300.00     0  00:00           0      0.0242      -5.705
  WSF200               JUNCTION      0.00   411.90     0  02:25           0        3.19       0.018
  YS02001580           JUNCTION      0.00   134.14     0  01:46           0      0.0045       3.606
  YS02001583           JUNCTION      0.00   214.37     0  01:46           0      0.0148     -10.080
  YS02001586           JUNCTION    524.15   524.18     0  01:53         1.3        1.31       0.118
  YS02001590           JUNCTION      0.00   318.16     0  01:55           0        1.15       0.061
  YS02001593           JUNCTION      0.00   318.33     0  02:02           0        1.14       0.025
  YS02001596           JUNCTION      0.00   318.32     0  01:59           0        1.14       0.310
  YS02001600           JUNCTION      0.00   318.34     0  01:54           0        1.14       0.691
  YS02001601           JUNCTION    922.83  1240.63     0  01:51        1.73        2.87       0.311
  YS02001602           JUNCTION      0.00   551.01     0  01:45           0        1.99       0.468
  YS02001605           JUNCTION      0.00   550.94     0  01:45           0        1.86       0.758
  YS02001607           JUNCTION      0.00   550.72     0  01:45           0        1.85       1.161
  YS02001610           JUNCTION      0.00   538.75     0  01:46           0        1.85       1.248
  YS02001613           JUNCTION      0.00   542.83     0  01:45           0        1.52       1.592
  YS02001616           JUNCTION      0.00   549.21     0  01:45           0         1.5       1.473
  YS02001619           JUNCTION    903.26   947.52     0  01:46        2.01        3.48       0.611
  YS02001622           JUNCTION      0.00   935.21     0  01:46           0        3.44       0.846
  YS02001625           JUNCTION      0.00   999.85     0  01:52           0        3.43       1.318
  YS02001629           JUNCTION      0.00   935.92     0  01:46           0        2.81       0.801
  YS02001633           JUNCTION    710.43  1450.85     0  01:47        1.31        4.04       0.797
  YS02001641           JUNCTION      0.00  1451.18     0  01:47           0        3.94       0.533
  YS02001644           JUNCTION    609.71  1914.69     0  01:47        1.08        4.99       0.523
  YS02001647           JUNCTION      0.00  1915.77     0  01:47           0        4.93       0.566
  YS02001649           JUNCTION      0.00  2179.78     0  01:48           0         5.9       0.642
  YS02001652           JUNCTION      0.00   732.58     0  01:51           0        1.02       2.309
  YS02001655           JUNCTION      0.15   732.90     0  01:51     0.00443        1.04       2.263
  YS02001658           JUNCTION      0.00   786.15     0  01:49           0        1.08       0.397
  YS02001661           JUNCTION      0.00   793.35     0  01:50           0        1.08       0.702
  YS02001664           JUNCTION    610.60   610.60     0  01:50        1.03        1.03      -0.043
  YS02001745           JUNCTION    379.05   462.18     0  01:49       0.589       0.648       0.903
  YS02001748           JUNCTION      0.04   577.46     0  01:50      0.0013       0.654       1.809
  YS02001751           JUNCTION      0.01   478.70     0  01:50    0.000317       0.602       3.400
  YS02001754           JUNCTION      0.26   478.66     0  01:50     0.00749       0.599       4.010
  YS02001757           JUNCTION      0.00  3451.36     0  01:51           0        8.37       1.152
  YS02001759           JUNCTION    550.48  1321.76     0  01:49       0.861        1.99       1.134
  YS02001762           JUNCTION      0.00   769.49     0  01:50           0        1.15       1.812
  YS02001765           JUNCTION      0.00   767.24     0  01:50           0        1.17       2.114
  YS02001767           JUNCTION      0.54   764.97     0  01:50      0.0154        1.21       3.014
  YS02001770           JUNCTION    751.34   757.43     0  01:50        1.27        1.28       2.527
  YS02001774           JUNCTION      0.00   435.27     0  01:48           0      0.0658      60.861
  YS02001779           JUNCTION      0.01   418.91     0  01:48    0.000144      0.0275     110.819
  YS02001783           JUNCTION      0.00  1108.35     0  01:48           0        3.21       0.222
  YS02001784           JUNCTION      1.06  1108.01     0  01:48      0.0305        3.23       0.334
  YS02001786           JUNCTION      0.06  1107.68     0  01:48     0.00162        3.23       0.427
  YS02001788           JUNCTION      0.07  1076.90     0  01:48     0.00204        3.21       0.402
  YS02001790           JUNCTION      0.15   976.54     0  01:49     0.00446        3.21       0.529
  YS02001791           JUNCTION      0.00   976.50     0  01:50           0        3.19       0.443
  YS02001793           JUNCTION      0.00   976.90     0  01:50           0        3.17       0.516
  YS02001882           JUNCTION      0.00    62.45     0  01:47           0      0.0127       5.950
  YS02001884           JUNCTION      0.00   122.11     0  01:47           0      0.0489       5.591
  YS02001887           JUNCTION    588.85   588.85     0  01:50       0.892       0.925       0.466
  YS02001890           JUNCTION      0.00   589.28     0  01:50           0       0.884       0.592
  YS02001895           JUNCTION      0.00   536.89     0  01:47           0       0.862       0.234
  YS02001898           JUNCTION      0.00   544.49     0  01:47           0        0.86      -0.010
  YS02001901           JUNCTION      0.00   558.80     0  01:47           0       0.863       0.406
  YS02001904           JUNCTION      0.00   562.23     0  01:47           0       0.868       0.330
  YS02001907           JUNCTION      0.00  1566.34     0  01:50           0        2.65       0.684
  YS02001910           JUNCTION      0.00  1071.85     0  01:50           0        1.79       0.411
  YS02001915           JUNCTION    619.65  1071.26     0  01:50        1.09        1.84       0.088
  YS02001918           JUNCTION      0.00   551.17     0  01:47           0       0.779      -0.009
  YS02001920           JUNCTION      2.87   534.97     0  01:48      0.0827       0.757      -0.020
  YS02001923           JUNCTION      0.04   708.86     0  01:48     0.00109       0.659      -0.244
  YS02001926           JUNCTION      0.05  1020.78     0  01:48      0.0015       0.637      -0.198
  YS02001929           JUNCTION    317.23   886.40     0  01:48       0.616       0.622      -0.190
  YS02006553           JUNCTION      0.00   670.90     0  02:06           0        2.03       0.598
  YS02006556           JUNCTION      0.00   670.31     0  02:05           0        2.03       0.401
  YS02006558           JUNCTION    750.32  1156.99     0  01:47        1.24        3.24       0.113
  YS02006561           JUNCTION      0.00  1158.39     0  01:47           0        3.21      -0.004
  YS02163301           JUNCTION      0.00   929.09     0  01:47           0        2.78       0.868
  YS02163601           JUNCTION      0.11  1449.85     0  01:47     0.00317        3.98       0.751
  YS02164001           JUNCTION      0.00  1450.81     0  01:47           0        3.95       0.500
  CC-1                 OUTFALL       0.00   683.00     0  00:00           0       0.208       0.000
  CC-2                 OUTFALL       0.00   683.00     0  00:00           0       0.208       0.000
  JK-1                 OUTFALL       0.00  1000.00     0  00:00           0      0.0791       0.000
  JK-2                 OUTFALL       0.00  1000.00     0  00:00           0      0.0791       0.000
  WSC                  OUTFALL       0.00   818.14     0  02:27           0        14.6       0.000
  CC-storage           STORAGE       0.00  3452.14     0  01:51           0        10.5       0.402
  JK-storage           STORAGE       0.00   976.67     0  01:48           0        3.31       0.489
  XR-storage           STORAGE     200.00   200.00     0  00:00        5.76        6.36     -41.886
  
  
  **********************
  Node Surcharge Summary
  **********************
  
  Surcharging occurs when water rises above the top of the highest conduit.
  ---------------------------------------------------------------------
                                               Max. Height   Min. Depth
                                   Hours       Above Crown    Below Rim
  Node                 Type      Surcharged         Meters       Meters
  ---------------------------------------------------------------------
  WS02006109           JUNCTION        1.77          0.017        1.803
  WS02006228           JUNCTION        1.76          0.020        2.180
  WS02006229           JUNCTION        1.78          0.030        2.420
  WS02006232           JUNCTION        1.83          0.051        1.429
  WS02006235           JUNCTION        1.78          0.056        1.234
  WS02006238           JUNCTION        1.80          0.088        1.342
  WS02006239           JUNCTION        1.78          0.071        1.219
  WS02006240           JUNCTION        1.78          0.081        1.309
  WS02006242           JUNCTION        1.86          0.178        0.642
  WS02006243           JUNCTION        1.80          0.134        0.636
  WS02006245           JUNCTION        1.80          0.153        0.697
  WS02006247           JUNCTION        1.82          0.184        0.576
  WS02006248           JUNCTION        1.79          0.138        0.242
  WS02006249           JUNCTION        1.81          0.200        0.190
  WS02006252           JUNCTION        2.09          1.100        0.000
  WS02006256           JUNCTION        3.01          2.050        0.000
  YS02001580           JUNCTION        0.47          0.450        0.000
  YS02001583           JUNCTION        0.48          0.500        0.000
  YS02001586           JUNCTION        0.71          0.510        0.000
  YS02001590           JUNCTION        0.83          0.750        0.000
  YS02001593           JUNCTION        0.84          0.763        0.077
  YS02001596           JUNCTION        1.05          0.989        0.081
  YS02001600           JUNCTION        1.55          1.190        0.000
  YS02001601           JUNCTION        6.41          1.440        0.000
  YS02001602           JUNCTION        6.38          1.270        0.000
  YS02001605           JUNCTION        6.36          1.180        0.000
  YS02001607           JUNCTION        1.29          0.680        0.000
  YS02001610           JUNCTION        1.44          0.680        0.000
  YS02001613           JUNCTION        1.30          0.700        0.000
  YS02001616           JUNCTION        1.16          0.610        0.000
  YS02001619           JUNCTION        1.10          0.610        0.000
  YS02001622           JUNCTION        1.18          0.620        0.000
  YS02001625           JUNCTION        6.25          0.780        0.000
  YS02001629           JUNCTION        1.06          0.470        0.000
  YS02001633           JUNCTION        6.26          1.060        0.000
  YS02001641           JUNCTION        6.25          1.100        0.000
  YS02001644           JUNCTION        6.24          0.920        0.000
  YS02001647           JUNCTION        6.20          0.790        0.110
  YS02001649           JUNCTION        6.20          0.963        0.087
  YS02001652           JUNCTION        6.19          0.912        0.218
  YS02001655           JUNCTION        0.98          1.160        0.040
  YS02001658           JUNCTION        0.08          1.244        0.056
  YS02001748           JUNCTION        0.01          0.496        0.694
  YS02001751           JUNCTION        0.53          0.892        0.308
  YS02001754           JUNCTION        6.18          0.756        0.394
  YS02001757           JUNCTION        6.20          0.911        0.299
  YS02001759           JUNCTION        6.19          1.069        0.141
  YS02001762           JUNCTION        6.19          1.053        0.097
  YS02001765           JUNCTION        6.19          0.953        0.147
  YS02001767           JUNCTION        6.19          0.868        0.162
  YS02001770           JUNCTION        6.19          0.887        0.033
  YS02001774           JUNCTION        6.19          0.979        0.071
  YS02001779           JUNCTION        6.19          0.680        0.000
  YS02001783           JUNCTION        0.58          0.853        0.747
  YS02001784           JUNCTION        0.59          0.909        0.581
  YS02001786           JUNCTION        0.56          1.148        0.282
  YS02001788           JUNCTION        0.56          1.043        0.437
  YS02001790           JUNCTION        6.20          1.157        0.000
  YS02001791           JUNCTION        6.21          0.880        1.040
  YS02001793           JUNCTION        6.22          0.978        1.622
  YS02001882           JUNCTION        0.42          0.735        0.095
  YS02001884           JUNCTION        0.43          0.753        0.117
  YS02001887           JUNCTION        0.47          0.799        0.151
  YS02001890           JUNCTION        0.48          0.760        0.000
  YS02001895           JUNCTION        0.41          0.599        0.151
  YS02001898           JUNCTION        0.41          0.586        0.154
  YS02001901           JUNCTION        0.45          0.714        0.156
  YS02001904           JUNCTION        0.44          0.656        0.194
  YS02001907           JUNCTION        0.64          0.950        0.000
  YS02001910           JUNCTION        0.50          1.004        0.096
  YS02001915           JUNCTION        0.42          0.945        0.055
  YS02001918           JUNCTION        0.33          0.810        0.000
  YS02001920           JUNCTION        0.34          1.140        0.000
  YS02001923           JUNCTION        0.01          0.820        0.000
  YS02001926           JUNCTION        0.02          0.900        0.000
  YS02001929           JUNCTION        0.01          0.780        0.000
  YS02006553           JUNCTION        0.65          1.016        0.174
  YS02006556           JUNCTION        0.57          0.976        0.374
  YS02006558           JUNCTION        0.57          0.955        0.445
  YS02006561           JUNCTION        0.36          0.567        0.583
  YS02163301           JUNCTION        6.26          1.030        0.000
  YS02163601           JUNCTION        6.27          1.080        0.000
  YS02164001           JUNCTION        6.25          1.100        0.000
  
  
  *********************
  Node Flooding Summary
  *********************
  
  Flooding refers to all water that overflows a node, whether it ponds or not.
  --------------------------------------------------------------------------
                                                             Total   Maximum
                                 Maximum   Time of Max       Flood    Ponded
                        Hours       Rate    Occurrence      Volume     Depth
  Node                 Flooded       LPS   days hr:min    10^6 ltr    Meters
  --------------------------------------------------------------------------
  WS02006252              0.01    245.63      0  00:00       0.000     0.000
  WS02006256              0.02    293.19      0  00:00       0.005     0.000
  YS02001580              0.01     81.52      0  01:46       0.000     0.000
  YS02001583              0.01    108.98      0  01:46       0.000     0.000
  YS02001586              0.36    206.73      0  01:53       0.153     0.000
  YS02001590              0.01      7.93      0  01:46       0.000     0.000
  YS02001600              0.01      6.51      0  01:46       0.000     0.000
  YS02001601              0.60    842.63      0  01:51       0.873     0.000
  YS02001602              0.62     62.17      0  02:12       0.115     0.000
  YS02001605              0.01      0.36      0  01:54       0.000     0.000
  YS02001607              0.01      0.92      0  02:19       0.000     0.000
  YS02001610              0.45    400.20      0  01:53       0.323     0.000
  YS02001613              0.01      1.53      0  02:19       0.000     0.000
  YS02001616              0.01      2.12      0  02:19       0.000     0.000
  YS02001619              0.01      2.53      0  02:19       0.000     0.000
  YS02001622              0.01      0.51      0  02:19       0.000     0.000
  YS02001625              0.46    999.46      0  01:52       0.610     0.000
  YS02001629              0.06    208.53      0  01:46       0.017     0.000
  YS02001633              0.01      3.95      0  01:49       0.000     0.000
  YS02001641              0.01      1.39      0  02:12       0.000     0.000
  YS02001644              0.05    292.89      0  01:51       0.028     0.000
  YS02001779              0.02    365.52      0  01:48       0.006     0.000
  YS02001790              0.01     68.99      0  01:48       0.000     0.000
  YS02001890              0.07    117.18      0  01:49       0.017     0.000
  YS02001907              0.27   1342.31      0  01:50       0.619     0.000
  YS02001918              0.01    282.26      0  01:49       0.004     0.000
  YS02001920              0.01     87.45      0  01:49       0.000     0.000
  YS02001923              0.01    334.50      0  01:49       0.002     0.000
  YS02001926              0.01    101.52      0  01:49       0.001     0.000
  YS02001929              0.01    463.06      0  01:49       0.001     0.000
  YS02163301              0.01      1.06      0  02:12       0.000     0.000
  YS02163601              0.01      7.60      0  01:49       0.000     0.000
  YS02164001              0.01      3.32      0  02:12       0.000     0.000
  CC-storage              0.56    651.74      0  02:30       0.616     0.000
  JK-storage              6.20    976.37      0  01:49       2.819     0.000
  
  
  **********************
  Storage Volume Summary
  **********************
  
  ------------------------------------------------------------------------------------------------
                         Average    Avg   Evap  Exfil     Maximum    Max    Time of Max    Maximum
                          Volume   Pcnt   Pcnt   Pcnt      Volume   Pcnt     Occurrence    Outflow
  Storage Unit           1000 m³   Full   Loss   Loss     1000 m³   Full    days hr:min        LPS
  ------------------------------------------------------------------------------------------------
  CC-storage               4.967   77.5    0.0    0.0       6.410  100.0       0  02:30    1783.53
  JK-storage               0.228   78.3    0.0    0.0       0.291  100.0       0  01:48    2300.00
  XR-storage               0.037    2.6    0.0    0.0       0.600   41.7       0  00:00     380.00
  
  
  ***********************
  Outfall Loading Summary
  ***********************
  
  -----------------------------------------------------------
                         Flow       Avg       Max       Total
                         Freq      Flow      Flow      Volume
  Outfall Node           Pcnt       LPS       LPS    10^6 ltr
  -----------------------------------------------------------
  CC-1                   1.36    683.00    683.00       0.208
  CC-2                   1.36    683.00    683.00       0.208
  JK-1                   1.26    347.46   1000.00       0.079
  JK-2                   1.26    347.46   1000.00       0.079
  WSC                   99.92    564.54    818.14      14.615
  -----------------------------------------------------------
  System                21.03   2625.47   3366.35      15.190
  
  
  ********************
  Link Flow Summary
  ********************
  
  -----------------------------------------------------------------------------
                                 Maximum  Time of Max   Maximum    Max/    Max/
                                  |Flow|   Occurrence   |Veloc|    Full    Full
  Link                 Type          LPS  days hr:min     m/sec    Flow   Depth
  -----------------------------------------------------------------------------
  1                    CONDUIT    818.14     0  02:27      3.15    0.28    0.37
  WS02001211WS02001212 CONDUIT    390.84     0  03:41      0.78    0.30    0.64
  WS02001212WS02001213 CONDUIT    392.61     0  03:40      1.32    0.61    0.45
  WS02001213WS02003059 CONDUIT    395.65     0  03:40      0.85    0.65    0.75
  WS02003059WS02003060 CONDUIT    399.94     0  03:40      0.95    0.26    0.63
  WS02003060WS02003069 CONDUIT    816.05     0  02:25      1.80    0.32    0.42
  WS02003066WSF200     CONDUIT    411.90     0  02:25      2.69    0.07    0.19
  WS02003067WS02003066 CONDUIT    411.90     0  02:25      1.04    0.13    0.38
  WS02003069WS02003072 CONDUIT    816.35     0  02:26      1.55    0.39    0.47
  WS02003072WS02003073 CONDUIT    816.33     0  02:27      1.64    1.76    0.45
  WS02004138WS02004139 CONDUIT    395.20     0  00:00      3.65    0.08    0.43
  WS02004139WS02001211 CONDUIT    381.79     0  03:39      0.91    0.48    0.59
  WS02004401WS02004402 CONDUIT    412.27     0  02:21      0.99    0.49    0.77
  WS02004402WS02004403 CONDUIT    412.24     0  02:22      0.99    0.59    0.79
  WS02004403WS02004404 CONDUIT    412.16     0  02:22      0.93    0.30    0.84
  WS02004404WS02004405 CONDUIT    412.32     0  02:22      1.10    4.04    0.88
  WS02004405WS02004406 CONDUIT    412.42     0  02:22      1.03    0.81    0.88
  WS02004406WS02004407 CONDUIT    412.18     0  02:22      0.89    0.18    0.57
  WS02004407WS02004409 CONDUIT    412.10     0  02:23      1.42    0.15    0.42
  WS02004409WS02004410 CONDUIT    412.04     0  02:23      0.92    0.53    0.58
  WS02004410WS02004411 CONDUIT    412.01     0  02:23      0.85    0.56    0.60
  WS02004411WS02004412 CONDUIT    411.98     0  02:24      0.81    0.59    0.61
  WS02004412WS02004413 CONDUIT    411.98     0  02:24      0.70    0.28    0.70
  WS02004413WS02003067 CONDUIT    411.89     0  02:24      0.96    0.18    0.54
  WS02006109WS02006110 CONDUIT    411.93     0  02:10      0.84    0.79    0.94
  WS02006110WS02006113 CONDUIT    412.02     0  02:19      1.03    0.37    0.75
  WS02006111WS02006112 CONDUIT    413.74     0  02:21      1.83    0.20    0.65
  WS02006112WS02006115 CONDUIT    412.48     0  02:21      0.71    0.24    0.78
  WS02006113WS02006111 CONDUIT    423.27     0  02:57      2.25    0.51    0.40
  WS02006115WS02006116 CONDUIT    412.42     0  02:21      0.98    0.53    0.66
  WS02006116WS02004401 CONDUIT    412.36     0  02:21      1.00    0.57    0.74
  WS02006228WS02006109 CONDUIT    411.60     0  02:11      1.06    1.80    1.00
  WS02006229WS02006228 CONDUIT    413.26     0  02:12      1.13    1.37    1.00
  WS02006230WS02006229 CONDUIT    411.16     0  02:12      1.22    9.15    1.00
  WS02006231WS02006230 CONDUIT    400.41     0  02:19      1.37    6.07    0.77
  WS02006232WS02006231 CONDUIT    400.51     0  02:18      1.08    0.84    0.92
  WS02006234WS02006232 CONDUIT    400.52     0  02:18      1.40    0.81    1.00
  WS02006235WS02006234 CONDUIT    401.60     0  02:02      1.30    4.24    0.99
  WS02006238WS02006235 CONDUIT    402.11     0  02:30      1.51    0.90    1.00
  WS02006239WS02006238 CONDUIT    402.96     0  02:09      1.23    1.29    1.00
  WS02006240WS02006239 CONDUIT    401.37     0  02:30      1.30    1.26    1.00
  WS02006242WS02006240 CONDUIT    401.19     0  02:08      1.16    1.59    1.00
  WS02006243WS02006242 CONDUIT    401.45     0  02:44      1.43    0.86    1.00
  WS02006245WS02006243 CONDUIT    401.66     0  01:50      1.45    1.19    1.00
  WS02006247WS02006245 CONDUIT    404.04     0  02:31      1.43    3.20    1.00
  WS02006248WS02006247 CONDUIT    401.05     0  02:08      1.44    0.87    1.00
  WS02006249WS02006248 CONDUIT    401.50     0  02:30      1.38    2.20    1.00
  WS02006251WS02006249 CONDUIT    458.97     0  00:00      1.99    1.32    1.00
  WS02006252WS02006251 CONDUIT    401.08     0  02:29     24.55    1.47    1.00
  WS02006256WS02006235 CONDUIT    288.91     0  00:00      4.23    3.06    1.00
  WSF200WS02003060     CONDUIT    411.90     0  02:25      1.43    0.09    0.30
  YS02001580YS02001583 CONDUIT    134.14     0  01:46      0.80    0.52    1.00
  YS02001583YS02001586 CONDUIT    191.56     0  01:46      0.81    0.29    1.00
  YS02001586YS02001590 CONDUIT    318.16     0  01:55      1.28    0.56    1.00
  YS02001590YS02001593 CONDUIT    318.33     0  02:02      1.13    2.00    1.00
  YS02001593YS02001596 CONDUIT    318.32     0  01:59      1.62    0.50    1.00
  YS02001596YS02001600 CONDUIT    318.34     0  01:54      1.13    0.62    1.00
  YS02001600YS02001601 CONDUIT    317.93     0  01:59      1.12    0.55    1.00
  YS02001601YS02001602 CONDUIT    551.01     0  01:45      1.95    1.99    1.00
  YS02001602YS02001605 CONDUIT    550.94     0  01:45      1.95   11.66    1.00
  YS02001605YS02001607 CONDUIT    550.72     0  01:45      1.95    3.02    1.00
  YS02001607YS02001610 CONDUIT    538.75     0  01:46      0.69    0.51    1.00
  YS02001610YS02001613 CONDUIT    542.83     0  01:45      0.69    0.63    1.00
  YS02001613YS02001616 CONDUIT    549.21     0  01:45      0.70    0.47    1.00
  YS02001616YS02001619 CONDUIT    498.61     0  01:46      0.66    0.87    1.00
  YS02001619YS02001622 CONDUIT    935.21     0  01:46      1.23    1.38    1.00
  YS02001622YS02001625 CONDUIT    934.47     0  01:46      1.19    0.50    1.00
  YS02001625YS02001629 CONDUIT    935.92     0  01:46      1.19    0.45    1.00
  YS02001629YS02163301 CONDUIT    929.09     0  01:47      1.18    1.14    1.00
  YS02001633YS02163601 CONDUIT   1449.74     0  01:47      1.85    1.52    1.00
  YS02001641YS02001644 CONDUIT   1452.25     0  01:47      1.85    4.69    1.00
  YS02001644YS02001647 CONDUIT   1915.77     0  01:47      2.46    1.13    1.00
  YS02001647YS02001649 CONDUIT   1929.02     0  01:48      2.46    1.02    1.00
  YS02001649YS02001757 CONDUIT   2185.10     0  01:48      2.78    1.33    1.00
  YS02001652YS02001649 CONDUIT    733.45     0  01:51      0.93    0.36    1.00
  YS02001655YS02001652 CONDUIT    732.58     0  01:51      1.40    0.36    1.00
  YS02001658YS02001655 CONDUIT    732.75     0  01:51      1.99    0.31    1.00
  YS02001661YS02001658 CONDUIT    786.15     0  01:49      2.43    0.31    0.99
  YS02001664YS02001661 CONDUIT    793.35     0  01:50      2.43    0.25    0.73
  YS02001745YS02001748 CONDUIT    577.42     0  01:50      2.29    0.22    0.88
  YS02001748YS02001751 CONDUIT    478.69     0  01:50      1.79    0.24    1.00
  YS02001751YS02001754 CONDUIT    478.40     0  01:50      1.48    0.23    1.00
  YS02001754YS02001757 CONDUIT    478.65     0  01:50      0.61    0.19    1.00
  YS02001757CaochengTiaoxuchi CONDUIT   3452.14     0  01:51      4.40    1.49    1.00
  YS02001759YS02001757 CONDUIT   1323.70     0  01:49      1.69    0.94    1.00
  YS02001762YS02001759 CONDUIT    772.74     0  01:49      0.98    0.89    1.00
  YS02001765YS02001762 CONDUIT    769.49     0  01:50      0.98    0.72    1.00
  YS02001767YS02001765 CONDUIT    767.24     0  01:50      0.98    0.97    1.00
  YS02001770YS02001767 CONDUIT    764.43     0  01:50      0.97    3.03    1.00
  YS02001774YS02001770 CONDUIT    435.27     0  01:48      0.55    0.28    1.00
  YS02001779YS02001774 CONDUIT    418.91     0  01:48      0.54    0.21    1.00
  YS02001783YS02001784 CONDUIT   1106.95     0  01:48      2.20    1.53    1.00
  YS02001784YS02001785 CONDUIT   1107.63     0  01:48      2.21    2.58    1.00
  YS02001786YS02001788 CONDUIT   1076.83     0  01:48      2.29    2.07    1.00
  YS02001788YS02001790 CONDUIT    976.38     0  01:49      2.39    0.72    1.00
  YS02001790YS02001791 CONDUIT    976.50     0  01:50      2.86    1.06    1.00
  YS02001791YS02001793 CONDUIT    976.90     0  01:50      5.63    0.42    1.00
  YS02001793JiankangQianchi CONDUIT    976.67     0  01:48      1.54    0.08    1.00
  YS02001882YS02001884 CONDUIT     62.45     0  01:47      0.14    0.07    1.00
  YS02001884YS02001887 CONDUIT    122.11     0  01:47      0.16    0.16    1.00
  YS02001887YS02001890 CONDUIT    589.28     0  01:50      0.75    1.01    1.00
  YS02001890YS02001895 CONDUIT    536.89     0  01:47      0.68    0.25    1.00
  YS02001895YS02001898 CONDUIT    544.49     0  01:47      0.69    0.94    1.00
  YS02001898YS02001901 CONDUIT    558.80     0  01:47      0.71    0.36    1.00
  YS02001901YS02001904 CONDUIT    562.23     0  01:47      0.72    0.87    1.00
  YS02001904YS02001907 CONDUIT    570.55     0  01:47      0.73    0.20    1.00
  YS02001907YS02006553 CONDUIT    670.90     0  02:06      0.75    0.79    1.00
  YS02001910YS02001907 CONDUIT   1072.61     0  01:50      1.37    0.60    1.00
  YS02001915YS02001910 CONDUIT   1071.85     0  01:50      1.36    0.53    1.00
  YS02001918YS02001915 CONDUIT    551.17     0  01:47      0.74    0.30    1.00
  YS02001920YS02001918 CONDUIT    532.10     0  01:48      0.68    0.51    1.00
  YS02001923YS02001920 CONDUIT    533.39     0  01:48      0.74    0.24    1.00
  YS02001926YS02001923 CONDUIT    774.23     0  01:48      1.21    1.11    1.00
  YS02001929YS02001926 CONDUIT    610.84     0  01:48      1.21    0.29    1.00
  YS02006553YS02006556 CONDUIT    670.31     0  02:05      0.85    0.57    1.00
  YS02006556YS02006558 CONDUIT    672.29     0  02:06      0.86    0.53    1.00
  YS02006558YS02006561 CONDUIT   1158.39     0  01:47      4.10    2.56    1.00
  YS02006561YS02001783 CONDUIT   1108.35     0  01:48      2.27    0.57    1.00
  YS02163301YS02001633 CONDUIT    928.24     0  01:47      1.18    0.87    1.00
  YS02163601YS02164001 CONDUIT   1450.81     0  01:47      1.85    1.29    1.00
  YS02164001YS02001641 CONDUIT   1451.18     0  01:47      1.85    1.98    1.00
  CC-R1                PUMP       683.00     0  00:00              1.00
  CC-R2                PUMP       683.00     0  00:00              1.00
  CC-S1                PUMP       200.00     0  00:00              1.00
  CC-S2                PUMP       200.00     0  00:00              1.00
  JK-R1                PUMP      1000.00     0  00:00              1.00
  JK-R2                PUMP      1000.00     0  00:00              1.00
  JK-S                 PUMP       300.00     0  00:00              1.00
  XR-1                 PUMP        95.00     0  00:00              1.00
  XR-2                 PUMP        95.00     0  00:00              1.00
  XR-3                 PUMP        95.00     0  00:00              1.00
  XR-4                 PUMP        95.00     0  00:00              1.00
  
  
  ***************************
  Flow Classification Summary
  ***************************
  
  -------------------------------------------------------------------------------------
                      Adjusted    ---------- Fraction of Time in Flow Class ---------- 
                       /Actual         Up    Down  Sub   Sup   Up    Down  Norm  Inlet 
  Conduit               Length    Dry  Dry   Dry   Crit  Crit  Crit  Crit  Ltd   Ctrl  
  -------------------------------------------------------------------------------------
  1                       1.00   0.00  0.00  0.00  0.00  1.00  0.00  0.00  0.18  0.00
  WS02001211WS02001212    1.00   0.00  0.00  0.00  1.00  0.00  0.00  0.00  0.00  0.00
  WS02001212WS02001213    1.00   0.00  0.00  0.00  0.36  0.00  0.64  0.00  0.00  0.00
  WS02001213WS02003059    1.00   0.00  0.00  0.00  0.99  0.00  0.00  0.00  0.00  0.00
  WS02003059WS02003060    1.00   0.00  0.00  0.00  1.00  0.00  0.00  0.00  0.00  0.00
  WS02003060WS02003069    1.00   0.00  0.00  0.00  0.99  0.01  0.00  0.00  0.00  0.00
  WS02003066WSF200        1.00   0.02  0.10  0.00  0.00  0.88  0.00  0.00  0.86  0.00
  WS02003067WS02003066    1.00   0.10  0.02  0.00  0.89  0.00  0.00  0.00  0.00  0.00
  WS02003069WS02003072    1.00   0.00  0.00  0.00  0.99  0.01  0.00  0.00  0.00  0.00
  WS02003072WS02003073    1.00   0.00  0.00  0.00  0.00  0.00  0.00  1.00  0.00  0.00
  WS02004138WS02004139    1.00   0.00  0.00  0.00  0.99  0.01  0.00  0.00  1.00  0.00
  WS02004139WS02001211    1.00   0.00  0.00  0.00  1.00  0.00  0.00  0.00  0.00  0.00
  WS02004401WS02004402    1.00   0.02  0.00  0.00  0.98  0.00  0.00  0.00  0.00  0.00
  WS02004402WS02004403    1.00   0.02  0.00  0.00  0.98  0.00  0.00  0.00  0.00  0.00
  WS02004403WS02004404    1.00   0.00  0.03  0.00  0.97  0.00  0.00  0.00  0.00  0.00
  WS02004404WS02004405    1.00   0.00  0.00  0.00  1.00  0.00  0.00  0.00  0.00  0.00
  WS02004405WS02004406    1.00   0.00  0.00  0.00  1.00  0.00  0.00  0.00  0.00  0.00
  WS02004406WS02004407    1.00   0.00  0.05  0.00  0.95  0.00  0.00  0.00  0.00  0.00
  WS02004407WS02004409    1.00   0.05  0.00  0.00  0.94  0.01  0.00  0.00  0.94  0.00
  WS02004409WS02004410    1.00   0.05  0.00  0.00  0.95  0.00  0.00  0.00  0.02  0.00
  WS02004410WS02004411    1.00   0.05  0.00  0.00  0.95  0.00  0.00  0.00  0.00  0.00
  WS02004411WS02004412    1.00   0.05  0.00  0.00  0.95  0.00  0.00  0.00  0.00  0.00
  WS02004412WS02004413    1.00   0.05  0.00  0.00  0.94  0.00  0.00  0.00  0.01  0.00
  WS02004413WS02003067    1.00   0.06  0.04  0.00  0.00  0.00  0.90  0.00  0.00  0.00
  WS02006109WS02006110    1.00   0.00  0.01  0.00  0.98  0.00  0.01  0.00  0.00  0.00
  WS02006110WS02006113    1.00   0.01  0.01  0.00  0.98  0.00  0.00  0.00  0.00  0.00
  WS02006111WS02006112    1.00   0.02  0.00  0.00  0.98  0.00  0.00  0.00  0.98  0.00
  WS02006112WS02006115    1.00   0.02  0.00  0.00  0.97  0.00  0.00  0.00  0.00  0.00
  WS02006113WS02006111    1.00   0.02  0.00  0.00  0.00  0.98  0.00  0.00  0.10  0.00
  WS02006115WS02006116    1.00   0.02  0.00  0.00  0.97  0.00  0.00  0.01  0.00  0.00
  WS02006116WS02004401    1.00   0.02  0.00  0.00  0.98  0.00  0.00  0.00  0.00  0.00
  WS02006228WS02006109    1.00   0.00  0.00  0.00  1.00  0.00  0.00  0.00  0.00  0.00
  WS02006229WS02006228    1.00   0.00  0.00  0.00  0.99  0.00  0.00  0.01  0.00  0.00
  WS02006230WS02006229    1.00   0.00  0.00  0.00  0.99  0.00  0.00  0.01  0.00  0.00
  WS02006231WS02006230    1.00   0.00  0.00  0.00  0.24  0.00  0.76  0.00  0.00  0.00
  WS02006232WS02006231    1.00   0.00  0.00  0.00  0.99  0.00  0.01  0.00  0.00  0.00
  WS02006234WS02006232    1.00   0.00  0.00  0.00  1.00  0.00  0.00  0.00  0.53  0.00
  WS02006235WS02006234    1.00   0.00  0.00  0.00  0.43  0.00  0.57  0.00  0.00  0.00
  WS02006238WS02006235    1.00   0.00  0.00  0.00  1.00  0.00  0.00  0.00  0.00  0.00
  WS02006239WS02006238    1.00   0.00  0.00  0.00  1.00  0.00  0.00  0.00  0.62  0.00
  WS02006240WS02006239    1.00   0.00  0.00  0.00  0.34  0.00  0.00  0.66  0.01  0.00
  WS02006242WS02006240    1.00   0.00  0.00  0.00  0.99  0.00  0.01  0.00  0.00  0.00
  WS02006243WS02006242    1.00   0.00  0.00  0.00  0.99  0.00  0.00  0.01  0.71  0.00
  WS02006245WS02006243    1.00   0.00  0.00  0.00  0.39  0.00  0.00  0.60  0.00  0.00
  WS02006247WS02006245    1.00   0.00  0.00  0.00  0.99  0.00  0.00  0.01  0.00  0.00
  WS02006248WS02006247    1.00   0.00  0.00  0.00  0.99  0.00  0.00  0.01  0.12  0.00
  WS02006249WS02006248    1.00   0.00  0.00  0.00  0.29  0.00  0.71  0.00  0.00  0.00
  WS02006251WS02006249    1.00   0.00  0.00  0.00  1.00  0.00  0.00  0.00  0.72  0.00
  WS02006252WS02006251    1.00   0.00  0.74  0.00  0.00  0.00  0.26  0.00  0.00  0.00
  WS02006256WS02006235    1.00   0.00  0.00  0.00  1.00  0.00  0.00  0.00  0.00  0.00
  WSF200WS02003060        1.00   0.00  0.02  0.00  0.98  0.00  0.00  0.00  0.66  0.00
  YS02001580YS02001583    1.00   0.22  0.59  0.00  0.19  0.00  0.00  0.00  0.68  0.00
  YS02001583YS02001586    1.00   0.49  0.26  0.00  0.25  0.00  0.00  0.00  0.68  0.00
  YS02001586YS02001590    1.00   0.13  0.00  0.00  0.38  0.04  0.00  0.45  0.31  0.00
  YS02001590YS02001593    1.00   0.13  0.01  0.00  0.14  0.00  0.73  0.00  0.00  0.00
  YS02001593YS02001596    1.00   0.13  0.00  0.00  0.79  0.00  0.00  0.07  0.64  0.00
  YS02001596YS02001600    1.00   0.14  0.00  0.00  0.81  0.00  0.00  0.05  0.01  0.00
  YS02001600YS02001601    1.00   0.13  0.01  0.00  0.86  0.00  0.00  0.00  0.04  0.00
  YS02001601YS02001602    1.00   0.13  0.01  0.00  0.87  0.00  0.00  0.00  0.00  0.00
  YS02001602YS02001605    1.00   0.13  0.00  0.00  0.86  0.00  0.00  0.00  0.00  0.00
  YS02001605YS02001607    1.00   0.14  0.00  0.00  0.86  0.00  0.00  0.00  0.00  0.00
  YS02001607YS02001610    1.00   0.13  0.01  0.00  0.86  0.00  0.00  0.00  0.01  0.00
  YS02001610YS02001613    1.00   0.13  0.00  0.00  0.87  0.00  0.00  0.00  0.00  0.00
  YS02001613YS02001616    1.00   0.13  0.00  0.00  0.87  0.00  0.00  0.00  0.00  0.00
  YS02001616YS02001619    1.00   0.13  0.00  0.00  0.87  0.00  0.00  0.00  0.00  0.00
  YS02001619YS02001622    1.00   0.13  0.00  0.00  0.87  0.00  0.00  0.00  0.00  0.00
  YS02001622YS02001625    1.00   0.13  0.00  0.00  0.87  0.00  0.00  0.00  0.04  0.00
  YS02001625YS02001629    1.00   0.13  0.05  0.00  0.79  0.00  0.03  0.00  0.00  0.00
  YS02001629YS02163301    1.00   0.15  0.01  0.00  0.84  0.00  0.00  0.00  0.00  0.00
  YS02001633YS02163601    1.00   0.00  0.01  0.00  0.99  0.00  0.00  0.00  0.15  0.00
  YS02001641YS02001644    1.00   0.00  0.01  0.00  0.99  0.00  0.00  0.00  0.00  0.00
  YS02001644YS02001647    1.00   0.00  0.17  0.00  0.83  0.00  0.00  0.00  0.00  0.00
  YS02001647YS02001649    1.00   0.00  0.17  0.00  0.83  0.00  0.00  0.00  0.02  0.00
  YS02001649YS02001757    1.00   0.00  0.00  0.00  0.98  0.02  0.00  0.00  0.18  0.00
  YS02001652YS02001649    1.00   0.00  0.00  0.00  0.97  0.03  0.00  0.00  0.16  0.00
  YS02001655YS02001652    1.00   0.00  0.00  0.00  0.79  0.00  0.00  0.21  0.01  0.00
  YS02001658YS02001655    1.00   0.00  0.14  0.00  0.78  0.08  0.00  0.00  0.01  0.00
  YS02001661YS02001658    1.00   0.14  0.00  0.00  0.77  0.09  0.00  0.00  0.00  0.00
  YS02001664YS02001661    1.00   0.13  0.00  0.00  0.83  0.04  0.00  0.00  0.86  0.00
  YS02001745YS02001748    1.00   0.00  0.00  0.00  0.77  0.00  0.00  0.23  0.00  0.00
  YS02001748YS02001751    1.00   0.00  0.00  0.00  0.91  0.09  0.00  0.00  0.12  0.00
  YS02001751YS02001754    1.00   0.00  0.00  0.00  0.78  0.00  0.00  0.22  0.00  0.00
  YS02001754YS02001757    1.00   0.00  0.00  0.00  1.00  0.00  0.00  0.00  0.21  0.00
  YS02001757CaochengTiaoxuchi    1.00   0.00  0.00  0.00  0.98  0.02  0.00  0.00  0.20  0.00
  YS02001759YS02001757    1.00   0.00  0.00  0.00  1.00  0.00  0.00  0.00  0.06  0.00
  YS02001762YS02001759    1.00   0.00  0.00  0.00  1.00  0.00  0.00  0.00  0.03  0.00
  YS02001765YS02001762    1.00   0.00  0.00  0.00  1.00  0.00  0.00  0.00  0.15  0.00
  YS02001767YS02001765    1.00   0.00  0.00  0.00  1.00  0.00  0.00  0.00  0.00  0.00
  YS02001770YS02001767    1.00   0.00  0.00  0.00  1.00  0.00  0.00  0.00  0.00  0.00
  YS02001774YS02001770    1.00   0.00  0.13  0.00  0.87  0.00  0.00  0.00  0.03  0.00
  YS02001779YS02001774    1.00   0.00  0.00  0.00  1.00  0.00  0.00  0.00  0.17  0.00
  YS02001783YS02001784    1.00   0.00  0.18  0.00  0.82  0.00  0.00  0.00  0.00  0.00
  YS02001784YS02001785    1.00   0.00  0.00  0.00  1.00  0.00  0.00  0.00  0.17  0.00
  YS02001786YS02001788    1.00   0.00  0.00  0.00  0.96  0.04  0.00  0.00  0.00  0.00
  YS02001788YS02001790    1.00   0.00  0.00  0.00  0.96  0.04  0.00  0.00  0.18  0.00
  YS02001790YS02001791    1.00   0.00  0.00  0.00  0.79  0.21  0.00  0.00  0.03  0.00
  YS02001791YS02001793    1.00   0.00  0.00  0.00  0.78  0.22  0.00  0.00  0.00  0.00
  YS02001793JiankangQianchi    1.00   0.00  0.00  0.00  0.93  0.06  0.00  0.00  0.19  0.00
  YS02001882YS02001884    1.00   0.15  0.01  0.00  0.84  0.00  0.00  0.00  0.00  0.00
  YS02001884YS02001887    1.00   0.06  0.05  0.00  0.89  0.00  0.00  0.00  0.00  0.00
  YS02001887YS02001890    1.00   0.00  0.00  0.00  0.97  0.00  0.03  0.00  0.00  0.00
  YS02001890YS02001895    1.00   0.00  0.16  0.00  0.84  0.00  0.00  0.00  0.00  0.00
  YS02001895YS02001898    1.00   0.16  0.00  0.00  0.82  0.00  0.02  0.00  0.00  0.00
  YS02001898YS02001901    1.00   0.16  0.00  0.00  0.83  0.00  0.00  0.00  0.01  0.00
  YS02001901YS02001904    1.00   0.16  0.00  0.00  0.84  0.00  0.00  0.00  0.00  0.00
  YS02001904YS02001907    1.00   0.00  0.16  0.00  0.84  0.00  0.00  0.00  0.00  0.00
  YS02001907YS02006553    1.00   0.00  0.02  0.00  0.98  0.00  0.00  0.00  0.00  0.00
  YS02001910YS02001907    1.00   0.00  0.00  0.00  0.97  0.00  0.00  0.03  0.12  0.00
  YS02001915YS02001910    1.00   0.00  0.00  0.00  0.97  0.03  0.00  0.00  0.16  0.00
  YS02001918YS02001915    1.00   0.00  0.01  0.00  0.98  0.02  0.00  0.00  0.77  0.00
  YS02001920YS02001918    1.00   0.00  0.01  0.00  0.99  0.00  0.00  0.00  0.00  0.00
  YS02001923YS02001920    1.00   0.00  0.00  0.00  1.00  0.00  0.00  0.00  0.93  0.00
  YS02001926YS02001923    1.00   0.00  0.07  0.00  0.05  0.00  0.87  0.00  0.00  0.00
  YS02001929YS02001926    1.00   0.00  0.13  0.00  0.87  0.00  0.00  0.00  0.83  0.00
  YS02006553YS02006556    1.00   0.01  0.00  0.00  0.99  0.00  0.00  0.00  0.03  0.00
  YS02006556YS02006558    1.00   0.00  0.00  0.00  1.00  0.00  0.00  0.00  0.00  0.00
  YS02006558YS02006561    1.00   0.18  0.00  0.00  0.06  0.76  0.00  0.00  0.18  0.00
  YS02006561YS02001783    1.00   0.18  0.00  0.00  0.78  0.04  0.00  0.00  0.73  0.00
  YS02163301YS02001633    1.00   0.00  0.15  0.00  0.85  0.00  0.00  0.00  0.00  0.00
  YS02163601YS02164001    1.00   0.00  0.08  0.00  0.92  0.00  0.00  0.00  0.00  0.00
  YS02164001YS02001641    1.00   0.01  0.07  0.00  0.92  0.00  0.00  0.00  0.05  0.00
  
  
  *************************
  Conduit Surcharge Summary
  *************************
  
  ----------------------------------------------------------------------------
                                                           Hours        Hours 
                         --------- Hours Full --------   Above Full   Capacity
  Conduit                Both Ends  Upstream  Dnstream   Normal Flow   Limited
  ----------------------------------------------------------------------------
  WS02003072WS02003073        0.01      0.01      0.01      2.31         0.01
  WS02004404WS02004405        0.01      0.01      0.01      2.16         0.01
  WS02006109WS02006110        0.01      0.01      1.82      0.01         0.01
  WS02006110WS02006113        0.01      0.01      1.80      0.01         0.01
  WS02006111WS02006112        0.01      0.01      1.87      0.01         0.01
  WS02006228WS02006109        1.77      1.82      1.77      1.98         1.77
  WS02006229WS02006228        1.76      1.78      1.76      1.92         1.76
  WS02006230WS02006229        1.88      1.90      1.88      2.43         1.88
  WS02006231WS02006230        0.01      0.01      0.01      2.28         0.01
  WS02006232WS02006231        0.01      0.01      1.83      0.01         0.01
  WS02006234WS02006232        1.74      1.74      1.83      0.01         0.01
  WS02006235WS02006234        0.01      0.01      1.78      2.20         0.01
  WS02006238WS02006235        1.79      1.79      1.84      0.01         0.01
  WS02006239WS02006238        1.80      1.83      1.80      1.96         1.80
  WS02006240WS02006239        1.78      1.79      1.78      1.98         1.78
  WS02006242WS02006240        1.78      1.78      1.88      2.03         0.01
  WS02006243WS02006242        1.81      1.81      1.86      0.01         0.01
  WS02006245WS02006243        1.80      1.81      1.80      2.02         1.79
  WS02006247WS02006245        1.80      1.83      1.80      2.09         1.80
  WS02006248WS02006247        1.80      1.80      1.82      0.01         0.01
  WS02006249WS02006248        1.79      1.79      1.81      2.08         0.01
  WS02006251WS02006249        1.81      1.82      1.81      2.07         1.81
  WS02006252WS02006251        2.09      2.09      2.09      2.09         0.01
  WS02006256WS02006235        2.24      2.24      3.00      0.02         0.01
  YS02001580YS02001583        0.47      0.47      0.52      0.01         0.01
  YS02001583YS02001586        0.48      0.48      0.71      0.01         0.01
  YS02001586YS02001590        0.72      0.72      0.83      0.01         0.01
  YS02001590YS02001593        0.84      0.84      0.86      0.80         0.01
  YS02001593YS02001596        0.85      0.85      1.05      0.01         0.01
  YS02001596YS02001600        1.22      1.22      1.55      0.01         0.01
  YS02001600YS02001601        6.19      6.19      6.41      0.01         0.01
  YS02001601YS02001602        6.38      6.38      6.42      0.95         0.01
  YS02001602YS02001605        6.36      6.36      6.38      2.07         0.07
  YS02001605YS02001607        6.33      6.36      6.33      1.27         1.18
  YS02001607YS02001610        1.29      1.29      1.44      0.01         0.01
  YS02001610YS02001613        1.30      1.30      1.44      0.01         0.01
  YS02001613YS02001616        1.16      1.16      1.30      0.01         0.01
  YS02001616YS02001619        1.10      1.10      1.16      0.01         0.01
  YS02001619YS02001622        1.10      1.10      1.18      0.61         0.52
  YS02001622YS02001625        1.18      1.18      6.25      0.01         0.01
  YS02001625YS02001629        1.06      1.06      6.25      0.01         0.01
  YS02001629YS02163301        6.26      6.26      6.26      0.03         0.07
  YS02001633YS02163601        6.26      6.26      6.27      0.15         0.20
  YS02001641YS02001644        6.24      6.25      6.24      1.38         1.15
  YS02001644YS02001647        6.20      6.20      6.24      0.04         0.01
  YS02001647YS02001649        6.20      6.20      6.20      0.01         0.01
  YS02001649YS02001757        6.20      6.20      6.20      0.18         0.17
  YS02001652YS02001649        6.19      6.19      6.20      0.01         0.01
  YS02001655YS02001652        0.98      0.98      6.19      0.01         0.01
  YS02001658YS02001655        0.08      0.08      0.98      0.01         0.01
  YS02001661YS02001658        0.01      0.01      0.08      0.01         0.01
  YS02001664YS02001661        0.01      0.01      0.01      0.01         0.01
  YS02001745YS02001748        0.01      0.01      0.01      0.01         0.01
  YS02001748YS02001751        0.03      0.03      0.53      0.01         0.01
  YS02001751YS02001754        0.53      0.53      6.18      0.01         0.01
  YS02001754YS02001757        6.18      6.18      6.20      0.01         0.01
  YS02001757CaochengTiaoxuchi        6.15      6.20      6.15      0.26         0.18
  YS02001759YS02001757        6.19      6.19      6.20      0.01         0.01
  YS02001762YS02001759        6.19      6.19      6.19      0.01         0.02
  YS02001765YS02001762        6.19      6.19      6.19      0.01         0.01
  YS02001767YS02001765        6.19      6.19      6.19      0.01         0.03
  YS02001770YS02001767        6.19      6.19      6.19      0.41         0.51
  YS02001774YS02001770        6.19      6.19      6.19      0.01         0.01
  YS02001779YS02001774        6.19      6.19      6.19      0.01         0.01
  YS02001783YS02001784        0.57      0.58      0.59      0.54         0.49
  YS02001784YS02001785        0.56      0.59      0.56      0.76         0.56
  YS02001786YS02001788        0.56      0.56      0.56      0.67         0.56
  YS02001788YS02001790        0.56      0.56      6.20      0.01         0.01
  YS02001790YS02001791        6.20      6.20      6.21      0.32         0.31
  YS02001791YS02001793        6.21      6.21      6.22      0.01         0.01
  YS02001793JiankangQianchi        6.22      6.22      6.37      0.01         0.01
  YS02001882YS02001884        0.42      0.42      0.43      0.01         0.01
  YS02001884YS02001887        0.46      0.46      0.47      0.01         0.01
  YS02001887YS02001890        0.48      0.48      0.49      0.02         0.01
  YS02001890YS02001895        0.41      0.41      0.50      0.01         0.01
  YS02001895YS02001898        0.41      0.41      0.41      0.01         0.01
  YS02001898YS02001901        0.41      0.41      0.45      0.01         0.01
  YS02001901YS02001904        0.44      0.44      0.45      0.01         0.01
  YS02001904YS02001907        0.44      0.44      0.65      0.01         0.01
  YS02001907YS02006553        0.76      0.76      0.83      0.01         0.01
  YS02001910YS02001907        0.50      0.50      0.64      0.01         0.01
  YS02001915YS02001910        0.42      0.42      0.50      0.01         0.01
  YS02001918YS02001915        0.33      0.33      0.42      0.01         0.01
  YS02001920YS02001918        0.33      0.33      0.34      0.01         0.01
  YS02001923YS02001920        0.28      0.28      0.34      0.01         0.01
  YS02001926YS02001923        0.01      0.01      0.02      0.01         0.01
  YS02001929YS02001926        0.01      0.01      0.02      0.01         0.01
  YS02006553YS02006556        0.57      0.57      0.65      0.01         0.01
  YS02006556YS02006558        0.60      0.60      0.67      0.01         0.01
  YS02006558YS02006561        0.44      0.57      0.44      0.72         0.44
  YS02006561YS02001783        0.36      0.36      0.58      0.01         0.01
  YS02163301YS02001633        6.26      6.26      6.26      0.01         0.01
  YS02163601YS02164001        6.25      6.25      6.27      0.05         0.01
  YS02164001YS02001641        6.25      6.25      6.25      0.61         0.58
  
  
  ***************
  Pumping Summary
  ***************
  
  ---------------------------------------------------------------------------------------------------------
                                                  Min       Avg       Max     Total     Power    % Time Off
                        Percent   Number of      Flow      Flow      Flow    Volume     Usage    Pump Curve
  Pump                 Utilized   Start-Ups       LPS       LPS       LPS  10^6 ltr     Kw-hr    Low   High
  ---------------------------------------------------------------------------------------------------------
  CC-R1                    1.06           1      0.00    683.00    683.00     0.208      3.51    0.0  100.0
  CC-R2                    1.06           1      0.00    683.00    683.00     0.208      3.51    0.0  100.0
  CC-S1                   26.15           2      0.00    200.00    200.00     1.506      6.50    0.0   56.3
  CC-S2                   26.15           2      0.00    200.00    200.00     1.506      6.50    0.0   56.3
  JK-R1                    0.97           2      0.00    347.46   1000.00     0.078      0.47    0.0    0.0
  JK-R2                    0.97           2      0.00    347.46   1000.00     0.078      0.47    0.0    0.0
  JK-S                     0.97           2      0.00    104.30    300.00     0.023      0.44    0.0    0.0
  XR-1                   100.00           1      0.00     95.00     95.00     2.736     68.18    0.0    0.0
  XR-2                   100.00           1      0.00     95.00     95.00     2.736     68.18    0.0    0.0
  XR-3                   100.00           1      0.00     95.00     95.00     2.736     68.18    0.0    0.0
  XR-4                   100.00           1      0.00     95.00     95.00     2.736     68.18    0.0    0.0
  

  Analysis begun on:  Wed Nov  5 16:29:40 2025
  Analysis ended on:  Wed Nov  5 16:29:43 2025
  Total elapsed time: 00:00:03