
  EPA STORM WATER MANAGEMENT MODEL - VERSION 5.2 (Build 5.2.4)
  PYSWMM TOOLKIT API - VERSION v1.0 (2023-11-27)
  ------------------------------------------------------------

  WARNING 04: minimum elevation drop used for Conduit WS02004404WS02004405
  WARNING 03: negative offset ignored for Link YS02001904YS02001907
  
  ****************
  Analysis Options
  ****************
  Flow Units ............... LPS
  Process Models:
    Rainfall/Runoff ........ YES
    RDII ................... NO
    Snowmelt ............... NO
    Groundwater ............ NO
    Flow Routing ........... YES
    Ponding Allowed ........ NO
    Water Quality .......... NO
  Infiltration Method ...... HORTON
  Flow Routing Method ...... DYNWAVE
  Surcharge Method ......... EXTRAN
  Starting Date ............ 08/28/2015 08:00:00
  Ending Date .............. 08/28/2015 16:00:00
  Antecedent Dry Days ...... 8.0
  Report Time Step ......... 00:01:00
  Wet Time Step ............ 00:01:00
  Dry Time Step ............ 00:01:00
  Routing Time Step ........ 30.00 sec
  Variable Time Step ....... YES
  Maximum Trials ........... 8
  Number of Threads ........ 4
  Head Tolerance ........... 0.001500 m
  
  
  **************************        Volume         Depth
  Runoff Quantity Continuity     hectare-m            mm
  **************************     ---------       -------
  Initial LID Storage ......         0.049         1.488
  Total Precipitation ......         0.935        28.186
  Evaporation Loss .........         0.000         0.000
  Infiltration Loss ........         0.067         2.028
  Surface Runoff ...........         0.645        19.454
  Final Storage ............         0.272         8.204
  Continuity Error (%) .....        -0.040
  
  
  **************************        Volume        Volume
  Flow Routing Continuity        hectare-m      10^6 ltr
  **************************     ---------     ---------
  Dry Weather Inflow .......         0.602         6.020
  Wet Weather Inflow .......         0.645         6.453
  Groundwater Inflow .......         0.000         0.000
  RDII Inflow ..............         0.000         0.000
  External Inflow ..........         0.105         1.045
  External Outflow .........         1.474        14.740
  Flooding Loss ............         0.137         1.369
  Evaporation Loss .........         0.000         0.000
  Exfiltration Loss ........         0.000         0.000
  Initial Stored Volume ....         0.303         3.031
  Final Stored Volume ......         0.504         5.042
  Continuity Error (%) .....       -27.809
  
  
  *************************
  Highest Continuity Errors
  *************************
  Node YS02001774 (14.61%)
  Node WS02006256 (-6.21%)
  Node YS02001884 (5.36%)
  Node YS02001583 (-4.85%)
  Node YS02001767 (1.71%)
  
  
  ***************************
  Time-Step Critical Elements
  ***************************
  Link WS02001212WS02001213 (25.81%)
  Link WS02006238WS02006235 (25.10%)
  Link WS02006252WS02006251 (14.96%)
  Link WS02006235WS02006234 (13.03%)
  Link WS02003066WSF200 (6.66%)
  
  
  ********************************
  Highest Flow Instability Indexes
  ********************************
  Link WS02006113WS02006111 (32)
  Link WS02006111WS02006112 (19)
  Link WS02006256WS02006235 (16)
  Link WS02006110WS02006113 (13)
  Link WS02006238WS02006235 (7)
  
  
  *********************************
  Most Frequent Nonconverging Nodes
  *********************************
  Node CC-1 (3.93%)
  Node CC-2 (3.93%)
  Node JK-1 (3.93%)
  Node JK-2 (3.93%)
  Node WSC (3.93%)
  
  
  *************************
  Routing Time Step Summary
  *************************
  Minimum Time Step           :     0.01 sec
  Average Time Step           :     3.24 sec
  Maximum Time Step           :     6.46 sec
  % of Time in Steady State   :     0.00
  Average Iterations per Step :     2.49
  % of Steps Not Converging   :     3.93
  Time Step Frequencies       :
     30.000 - 13.228 sec      :     0.00 %
     13.228 -  5.833 sec      :    25.03 %
      5.833 -  2.572 sec      :    34.94 %
      2.572 -  1.134 sec      :    19.46 %
      1.134 -  0.500 sec      :    20.57 %
  
  
  ***************************
  Subcatchment Runoff Summary
  ***************************
  
  ------------------------------------------------------------------------------------------------------------------------------
                            Total      Total      Total      Total     Imperv       Perv      Total       Total     Peak  Runoff
                           Precip      Runon       Evap      Infil     Runoff     Runoff     Runoff      Runoff   Runoff   Coeff
  Subcatchment                 mm         mm         mm         mm         mm         mm         mm    10^6 ltr      LPS
  ------------------------------------------------------------------------------------------------------------------------------
  sub60                     28.19       0.00       0.00       1.23      18.21       1.38      19.60        0.26   174.18   0.695
  sub61                     28.19       0.00       0.00       1.89      18.20       2.03      20.23        0.37   250.32   0.718
  sub62                     28.19       0.00       0.00       0.84      19.39       0.94      20.33        0.56   346.32   0.721
  sub63                     28.19       0.00       0.00       3.46      15.59       3.23      18.82        0.43   270.94   0.668
  sub64                     28.19       0.00       0.00       1.66      17.73       1.63      19.37        0.47   272.14   0.687
  sub65                     28.19       0.00       0.00       1.52      19.13       1.49      20.62        0.57   315.90   0.732
  sub66                     28.19       0.00       0.00       3.95      15.04       2.53      17.57        0.82   385.69   0.623
  sub67                     28.19       0.00       0.00       0.83      19.89       0.99      20.88        0.39   277.29   0.741
  sub68                     28.19       0.00       0.00       1.45      17.56       1.56      19.12        0.53   342.28   0.678
  sub69                     28.19       0.00       0.00       1.28      18.91       2.07      20.98        0.78   415.75   0.744
  sub70                     28.19       0.00       0.00       4.20      15.12       3.64      18.77        0.54   226.09   0.666
  sub71                     28.19       0.00       0.00       0.77      17.61       0.84      18.45        0.48   280.94   0.655
  sub72                     28.19       0.00       0.00       0.73      19.00       0.77      19.77        0.27   141.76   0.702
  

  ***********************
  LID Performance Summary
  ***********************

  --------------------------------------------------------------------------------------------------------------------
                                         Total      Evap     Infil   Surface    Drain    Initial     Final  Continuity
                                        Inflow      Loss      Loss   Outflow   Outflow   Storage   Storage       Error
  Subcatchment      LID Control             mm        mm        mm        mm        mm        mm        mm           %
  --------------------------------------------------------------------------------------------------------------------
  sub60             GreenRoof            28.19      0.00      0.00      0.00      0.00      7.05     35.27       -0.10
  sub61             GreenRoof            28.19      0.00      0.00      0.00      0.00      7.05     35.27       -0.10
  sub62             GreenRoof            28.19      0.00      0.00      0.00      0.00      7.05     35.27       -0.10
  sub63             GreenRoof            28.19      0.00      0.00      0.00      0.00      7.05     35.27       -0.10
  sub64             GreenRoof            28.19      0.00      0.00      0.00      0.00      7.05     35.27       -0.10
  sub65             GreenRoof            28.19      0.00      0.00      0.00      0.00      7.05     35.27       -0.10
  sub66             GreenRoof            28.19      0.00      0.00      0.00      0.00      7.05     35.27       -0.10
  sub67             GreenRoof            28.19      0.00      0.00      0.00      0.00      7.05     35.27       -0.10
  sub68             GreenRoof            28.19      0.00      0.00      0.00      0.00      7.05     35.27       -0.10
  sub69             GreenRoof            28.19      0.00      0.00      0.00      0.00      7.05     35.27       -0.10
  sub70             GreenRoof            28.19      0.00      0.00      0.00      0.00      7.05     35.27       -0.10
  sub71             GreenRoof            28.19      0.00      0.00      0.00      0.00      7.05     35.27       -0.10
  sub72             GreenRoof            28.19      0.00      0.00      0.00      0.00      7.05     35.27       -0.10
  
  ******************
  Node Depth Summary
  ******************
  
  ---------------------------------------------------------------------------------
                                 Average  Maximum  Maximum  Time of Max    Reported
                                   Depth    Depth      HGL   Occurrence   Max Depth
  Node                 Type       Meters   Meters   Meters  days hr:min      Meters
  ---------------------------------------------------------------------------------
  WS02001211           JUNCTION     0.76     0.78     5.62     0  03:20        0.78
  WS02001212           JUNCTION     0.46     0.49     5.55     0  03:19        0.49
  WS02001213           JUNCTION     0.68     0.73     5.49     0  03:19        0.73
  WS02003059           JUNCTION     0.72     0.78     5.47     0  03:19        0.78
  WS02003060           JUNCTION     0.37     0.47     5.41     0  03:18        0.47
  WS02003066           JUNCTION     0.15     0.27     5.82     0  02:45        0.27
  WS02003067           JUNCTION     0.41     0.65     5.97     0  02:47        0.65
  WS02003069           JUNCTION     0.41     0.54     5.12     0  03:19        0.54
  WS02003072           JUNCTION     0.48     0.60     4.97     0  03:19        0.60
  WS02003073           JUNCTION     0.28     0.37     4.43     0  03:20        0.37
  WS02004138           JUNCTION     0.19     0.20     7.45     0  00:00        0.19
  WS02004139           JUNCTION     0.71     0.73     5.64     0  03:21        0.73
  WS02004401           JUNCTION     0.49     0.75     6.75     0  02:41        0.75
  WS02004402           JUNCTION     0.52     0.78     6.74     0  02:41        0.78
  WS02004403           JUNCTION     0.55     0.80     6.73     0  02:42        0.80
  WS02004404           JUNCTION     0.62     0.88     6.73     0  02:42        0.88
  WS02004405           JUNCTION     0.62     0.87     6.72     0  02:42        0.87
  WS02004406           JUNCTION     0.64     0.88     6.71     0  02:42        0.88
  WS02004407           JUNCTION     0.13     0.26     6.57     0  02:42        0.26
  WS02004409           JUNCTION     0.28     0.57     6.34     0  03:16        0.57
  WS02004410           JUNCTION     0.31     0.59     6.31     0  03:16        0.59
  WS02004411           JUNCTION     0.33     0.61     6.29     0  02:46        0.61
  WS02004412           JUNCTION     0.36     0.62     6.26     0  03:17        0.62
  WS02004413           JUNCTION     0.52     0.79     6.26     0  02:44        0.79
  WS02006109           JUNCTION     0.54     0.83     7.45     0  02:30        0.83
  WS02006110           JUNCTION     0.55     0.82     7.41     0  02:30        0.82
  WS02006111           JUNCTION     0.13     0.25     6.96     0  02:27        0.25
  WS02006112           JUNCTION     0.63     0.93     6.82     0  03:22        0.93
  WS02006113           JUNCTION     0.20     0.39     7.29     0  03:21        0.39
  WS02006115           JUNCTION     0.37     0.65     6.78     0  03:22        0.64
  WS02006116           JUNCTION     0.46     0.73     6.77     0  02:41        0.73
  WS02006228           JUNCTION     0.52     0.84     7.50     0  02:16        0.84
  WS02006229           JUNCTION     0.49     0.82     7.52     0  02:27        0.82
  WS02006230           JUNCTION     0.47     0.86     7.60     0  02:30        0.86
  WS02006231           JUNCTION     0.28     0.60     7.72     0  02:32        0.60
  WS02006232           JUNCTION     0.40     0.75     7.79     0  02:31        0.75
  WS02006234           JUNCTION     0.31     0.71     7.87     0  02:31        0.71
  WS02006235           JUNCTION     0.34     0.76     7.93     0  02:30        0.75
  WS02006238           JUNCTION     0.37     0.80     7.95     0  02:21        0.80
  WS02006239           JUNCTION     0.34     0.80     8.01     0  02:31        0.80
  WS02006240           JUNCTION     0.32     0.79     8.08     0  02:31        0.78
  WS02006242           JUNCTION     0.39     0.90     8.17     0  02:21        0.89
  WS02006243           JUNCTION     0.32     0.84     8.26     0  02:21        0.83
  WS02006245           JUNCTION     0.33     0.85     8.34     0  02:30        0.85
  WS02006247           JUNCTION     0.35     0.89     8.39     0  02:21        0.88
  WS02006248           JUNCTION     0.32     0.85     8.44     0  02:21        0.85
  WS02006249           JUNCTION     0.35     0.91     8.50     0  02:31        0.91
  WS02006251           JUNCTION     0.34     0.91     8.58     0  02:31        0.91
  WS02006252           JUNCTION     0.25     1.50     9.74     0  00:00        0.64
  WS02006256           JUNCTION     0.57     2.35     9.28     0  00:00        2.35
  WSF200               JUNCTION     0.12     0.25     5.48     0  02:44        0.25
  YS02001580           JUNCTION     0.02     1.05     9.59     0  02:15        0.58
  YS02001583           JUNCTION     0.06     1.14     9.64     0  02:15        0.63
  YS02001586           JUNCTION     0.10     1.13     9.30     0  02:15        0.94
  YS02001590           JUNCTION     0.17     1.40     9.26     0  02:12        1.22
  YS02001593           JUNCTION     0.12     1.31     9.18     0  02:15        1.17
  YS02001596           JUNCTION     0.17     1.68     9.10     0  02:15        1.56
  YS02001600           JUNCTION     0.22     1.87     9.00     0  02:15        1.83
  YS02001601           JUNCTION     0.39     2.06     8.90     0  02:10        2.06
  YS02001602           JUNCTION     0.31     1.87     8.77     0  02:15        1.85
  YS02001605           JUNCTION     0.28     1.78     8.68     0  02:15        1.64
  YS02001607           JUNCTION     0.28     1.64     8.48     0  02:15        1.25
  YS02001610           JUNCTION     0.33     1.68     8.48     0  02:15        1.35
  YS02001613           JUNCTION     0.29     1.66     8.50     0  02:15        1.25
  YS02001616           JUNCTION     0.22     1.58     8.49     0  02:15        1.21
  YS02001619           JUNCTION     0.20     1.53     8.46     0  02:15        1.25
  YS02001622           JUNCTION     0.19     1.48     8.38     0  02:15        1.31
  YS02001625           JUNCTION     0.45     1.65     8.26     0  02:15        1.65
  YS02001629           JUNCTION     0.41     1.72     8.27     0  02:15        1.72
  YS02001633           JUNCTION     0.49     1.66     8.12     0  02:15        1.66
  YS02001641           JUNCTION     0.48     1.31     7.75     0  02:15        1.24
  YS02001644           JUNCTION     0.47     1.17     7.60     0  02:15        1.10
  YS02001647           JUNCTION     0.28     0.75     7.36     0  02:15        0.72
  YS02001649           JUNCTION     0.43     0.85     7.24     0  02:16        0.85
  YS02001652           JUNCTION     0.27     0.64     7.24     0  02:16        0.63
  YS02001655           JUNCTION     0.07     0.40     7.25     0  02:16        0.34
  YS02001658           JUNCTION     0.04     0.23     7.37     0  02:13        0.23
  YS02001661           JUNCTION     0.10     0.29     7.69     0  02:14        0.29
  YS02001664           JUNCTION     0.04     0.20     8.12     0  02:14        0.20
  YS02001745           JUNCTION     0.03     0.18     7.69     0  02:13        0.18
  YS02001748           JUNCTION     0.04     0.20     7.28     0  02:13        0.20
  YS02001751           JUNCTION     0.05     0.21     7.09     0  02:18        0.21
  YS02001754           JUNCTION     0.24     0.51     7.12     0  02:17        0.46
  YS02001757           JUNCTION     0.52     0.83     7.09     0  02:19        0.83
  YS02001759           JUNCTION     0.44     0.73     7.09     0  02:18        0.73
  YS02001762           JUNCTION     0.41     0.70     7.10     0  02:17        0.69
  YS02001765           JUNCTION     0.37     0.66     7.11     0  02:18        0.65
  YS02001767           JUNCTION     0.34     0.64     7.13     0  02:18        0.63
  YS02001770           JUNCTION     0.35     0.65     7.14     0  02:18        0.64
  YS02001774           JUNCTION     0.41     0.72     7.14     0  02:17        0.72
  YS02001779           JUNCTION     0.18     0.46     7.15     0  02:17        0.45
  YS02001783           JUNCTION     0.42     1.92     8.06     0  02:15        1.14
  YS02001784           JUNCTION     0.47     1.86     7.92     0  02:15        1.12
  YS02001786           JUNCTION     0.49     2.23     8.26     0  02:15        1.04
  YS02001788           JUNCTION     0.51     2.13     8.10     0  02:15        0.98
  YS02001790           JUNCTION     0.75     1.96     7.60     0  02:15        1.19
  YS02001791           JUNCTION     0.86     1.73     7.20     0  02:15        1.23
  YS02001793           JUNCTION     1.33     3.35     8.18     0  02:13        1.83
  YS02001882           JUNCTION     0.19     0.90     7.61     0  02:17        0.88
  YS02001884           JUNCTION     0.28     0.99     7.61     0  02:17        0.98
  YS02001887           JUNCTION     0.36     1.08     7.62     0  02:17        1.05
  YS02001890           JUNCTION     0.39     1.10     7.61     0  02:19        1.08
  YS02001895           JUNCTION     0.17     0.86     7.60     0  02:19        0.83
  YS02001898           JUNCTION     0.17     0.86     7.59     0  02:18        0.85
  YS02001901           JUNCTION     0.28     0.99     7.60     0  02:18        0.98
  YS02001904           JUNCTION     0.26     0.97     7.60     0  02:18        0.97
  YS02001907           JUNCTION     0.58     1.31     7.60     0  02:18        1.30
  YS02001910           JUNCTION     0.38     1.11     7.61     0  02:18        1.09
  YS02001915           JUNCTION     0.19     0.91     7.63     0  02:18        0.89
  YS02001918           JUNCTION     0.08     0.55     7.61     0  02:19        0.54
  YS02001920           JUNCTION     0.15     0.62     7.63     0  02:19        0.61
  YS02001923           JUNCTION     0.04     0.37     7.63     0  02:19        0.35
  YS02001926           JUNCTION     0.09     0.31     7.76     0  02:15        0.31
  YS02001929           JUNCTION     0.04     0.18     7.87     0  02:15        0.18
  YS02006553           JUNCTION     0.58     1.31     7.59     0  02:18        1.29
  YS02006556           JUNCTION     0.56     1.27     7.58     0  02:18        1.26
  YS02006558           JUNCTION     0.60     1.31     7.57     0  02:18        1.29
  YS02006561           JUNCTION     0.09     0.66     7.32     0  02:16        0.65
  YS02163301           JUNCTION     0.43     1.70     8.21     0  02:15        1.70
  YS02163601           JUNCTION     0.53     1.53     7.93     0  02:15        1.51
  YS02164001           JUNCTION     0.46     1.38     7.84     0  02:15        1.32
  CC-1                 OUTFALL      0.00     0.00     0.00     0  00:00        0.00
  CC-2                 OUTFALL      0.00     0.00     0.00     0  00:00        0.00
  JK-1                 OUTFALL      0.00     0.00     0.00     0  00:00        0.00
  JK-2                 OUTFALL      0.00     0.00     0.00     0  00:00        0.00
  WSC                  OUTFALL      0.28     0.37     1.04     0  03:20        0.37
  CC-storage           STORAGE      1.17     1.44     6.94     0  02:55        1.44
  JK-storage           STORAGE      4.52     5.80     6.60     0  02:15        5.80
  XR-storage           STORAGE      0.26     5.00     3.00     0  00:00        4.91
  
  
  *******************
  Node Inflow Summary
  *******************
  
  -------------------------------------------------------------------------------------------------
                                  Maximum  Maximum                  Lateral       Total        Flow
                                  Lateral    Total  Time of Max      Inflow      Inflow     Balance
                                   Inflow   Inflow   Occurrence      Volume      Volume       Error
  Node                 Type           LPS      LPS  days hr:min    10^6 ltr    10^6 ltr     Percent
  -------------------------------------------------------------------------------------------------
  WS02001211           JUNCTION      7.35   389.13     0  03:36       0.212        11.1       0.352
  WS02001212           JUNCTION      0.00   390.85     0  03:36           0        11.1       0.211
  WS02001213           JUNCTION      0.00   392.61     0  03:35           0        11.1       0.245
  WS02003059           JUNCTION      0.00   395.66     0  03:35           0          11       0.338
  WS02003060           JUNCTION     16.53   816.00     0  03:18       0.476        14.2       0.177
  WS02003066           JUNCTION      0.00   411.81     0  02:44           0        2.77       0.095
  WS02003067           JUNCTION      0.00   411.81     0  02:44           0        2.77       0.217
  WS02003069           JUNCTION      0.32   816.32     0  03:18     0.00922        14.2       0.190
  WS02003072           JUNCTION      0.00   816.31     0  03:19           0        14.2       0.241
  WS02003073           JUNCTION      1.82   818.13     0  03:19      0.0524        14.2       0.269
  WS02004138           JUNCTION      0.00   380.00     0  00:00           0        10.9       0.059
  WS02004139           JUNCTION      0.32   395.52     0  00:00     0.00924        10.9       0.411
  WS02004401           JUNCTION      0.00   411.88     0  02:41           0        2.91       0.436
  WS02004402           JUNCTION      0.00   411.80     0  02:36           0         2.9       0.435
  WS02004403           JUNCTION      0.00   411.86     0  02:41           0        2.89       0.418
  WS02004404           JUNCTION      0.16   411.93     0  02:42     0.00467        2.88       0.338
  WS02004405           JUNCTION      0.04   411.96     0  02:37      0.0011        2.87       0.506
  WS02004406           JUNCTION      0.00   412.01     0  02:37           0        2.86       0.843
  WS02004407           JUNCTION      0.00   411.92     0  02:42           0        2.84       0.097
  WS02004409           JUNCTION      0.00   411.89     0  02:42           0        2.83       0.239
  WS02004410           JUNCTION      0.00   411.86     0  02:43           0        2.83       0.317
  WS02004411           JUNCTION      0.00   411.84     0  02:43           0        2.82       0.359
  WS02004412           JUNCTION      0.00   411.85     0  02:44           0        2.81       0.432
  WS02004413           JUNCTION      0.00   411.84     0  02:47           0        2.79       0.705
  WS02006109           JUNCTION      1.23   411.69     0  02:28      0.0354        2.97       0.192
  WS02006110           JUNCTION      0.00   411.69     0  02:28           0        2.96       0.298
  WS02006111           JUNCTION      0.00   423.36     0  02:35           0        2.95       0.045
  WS02006112           JUNCTION      0.00   413.87     0  02:27           0        2.95       0.691
  WS02006113           JUNCTION      0.00   411.89     0  02:28           0        2.96       0.093
  WS02006115           JUNCTION      0.00   412.14     0  03:22           0        2.93       0.316
  WS02006116           JUNCTION      0.00   411.90     0  02:41           0        2.92       0.251
  WS02006228           JUNCTION      0.00   410.45     0  02:28           0        2.94       0.075
  WS02006229           JUNCTION      0.00   410.45     0  02:28           0        2.94       0.278
  WS02006230           JUNCTION     10.28   410.44     0  02:32       0.296        2.95       0.270
  WS02006231           JUNCTION      0.00   400.22     0  02:31           0        2.66       0.165
  WS02006232           JUNCTION      0.00   400.19     0  02:32           0        2.68       0.734
  WS02006234           JUNCTION      0.00   400.49     0  02:30           0        2.68      -0.115
  WS02006235           JUNCTION      0.00   401.42     0  02:30           0         2.7       0.537
  WS02006238           JUNCTION      0.00   400.47     0  02:21           0        2.67      -0.570
  WS02006239           JUNCTION      0.00   400.73     0  02:31           0        2.66      -0.256
  WS02006240           JUNCTION      0.00   400.38     0  02:21           0        2.65       0.021
  WS02006242           JUNCTION      0.00   400.40     0  02:31           0        2.66       0.308
  WS02006243           JUNCTION      0.00   400.57     0  02:21           0        2.66       0.058
  WS02006245           JUNCTION      0.00   400.59     0  02:21           0        2.68       0.939
  WS02006247           JUNCTION      0.00   400.58     0  02:31           0        2.69       0.086
  WS02006248           JUNCTION      0.00   402.06     0  07:28           0        2.69       0.151
  WS02006249           JUNCTION      0.00   472.08     0  07:27           0        2.71       0.800
  WS02006251           JUNCTION      0.08   405.03     0  07:26     0.00222        2.71      -0.012
  WS02006252           JUNCTION      0.00   400.00     0  00:00           0        2.71      -0.128
  WS02006256           JUNCTION      0.00   300.00     0  00:00           0      0.0243      -5.845
  WSF200               JUNCTION      0.00   411.81     0  02:45           0        2.77       0.075
  YS02001580           JUNCTION      0.00    93.02     0  02:15           0     0.00389      -0.196
  YS02001583           JUNCTION      0.00   133.71     0  02:14           0      0.0148      -4.625
  YS02001586           JUNCTION    226.09   237.25     0  02:15       0.542       0.554       0.230
  YS02001590           JUNCTION      0.00   237.29     0  02:15           0       0.541      -0.060
  YS02001593           JUNCTION      0.00   237.26     0  02:15           0       0.541       0.006
  YS02001596           JUNCTION      0.00   237.35     0  02:15           0       0.541      -0.011
  YS02001600           JUNCTION      0.00   237.36     0  02:16           0       0.541      -0.010
  YS02001601           JUNCTION    415.75   645.28     0  02:15       0.777        1.32       0.036
  YS02001602           JUNCTION      0.00   521.72     0  02:14           0        1.28       0.020
  YS02001605           JUNCTION      0.00   522.41     0  02:14           0        1.28       0.017
  YS02001607           JUNCTION      0.00   523.03     0  02:14           0        1.28       0.139
  YS02001610           JUNCTION      0.00   524.86     0  02:14           0        1.28       0.164
  YS02001613           JUNCTION      0.00   532.27     0  02:14           0        1.28       0.116
  YS02001616           JUNCTION      0.00   541.05     0  02:14           0        1.28       0.025
  YS02001619           JUNCTION    385.69   905.01     0  02:14       0.819         2.1      -0.007
  YS02001622           JUNCTION      0.00   892.98     0  02:14           0         2.1      -0.003
  YS02001625           JUNCTION      0.00   898.21     0  02:14           0         2.1       0.414
  YS02001629           JUNCTION      0.00   898.55     0  02:14           0        2.09       0.132
  YS02001633           JUNCTION    316.10  1199.67     0  02:15       0.573        2.67       0.381
  YS02001641           JUNCTION      0.00  1201.85     0  02:15           0        2.68       0.272
  YS02001644           JUNCTION    272.18  1471.35     0  02:15       0.466        3.14       0.274
  YS02001647           JUNCTION      0.00  1475.69     0  02:15           0        3.13       0.151
  YS02001649           JUNCTION      0.00  1748.27     0  02:16           0        3.56       0.409
  YS02001652           JUNCTION      0.00   319.77     0  02:16           0       0.434       0.548
  YS02001655           JUNCTION      0.15   270.24     0  02:14     0.00443       0.432       0.220
  YS02001658           JUNCTION      0.00   270.45     0  02:14           0       0.427      -0.016
  YS02001661           JUNCTION      0.00   270.71     0  02:14           0       0.427       0.081
  YS02001664           JUNCTION    270.94   270.94     0  02:14       0.427       0.427      -0.005
  YS02001745           JUNCTION    174.18   174.18     0  02:14       0.258       0.258      -0.002
  YS02001748           JUNCTION      0.04   174.25     0  02:13      0.0013       0.259       0.001
  YS02001751           JUNCTION      0.01   174.92     0  02:13    0.000317        0.26       0.428
  YS02001754           JUNCTION      0.26   181.03     0  02:13     0.00749        0.27       0.740
  YS02001757           JUNCTION      0.00  2306.18     0  02:17           0        4.73       1.186
  YS02001759           JUNCTION    250.36   515.53     0  02:18       0.372       0.947       1.066
  YS02001762           JUNCTION      0.00   324.80     0  02:18           0       0.579       1.436
  YS02001765           JUNCTION      0.00   311.86     0  02:18           0       0.581       1.399
  YS02001767           JUNCTION      0.54   298.27     0  02:19      0.0154       0.584       1.743
  YS02001770           JUNCTION    346.47   346.47     0  02:14       0.561       0.603       1.371
  YS02001774           JUNCTION      0.00    50.30     0  02:17           0       0.056      17.105
  YS02001779           JUNCTION      0.01    30.71     0  02:17    0.000144      0.0166      10.260
  YS02001783           JUNCTION      0.00   824.55     0  02:15           0        1.72       0.409
  YS02001784           JUNCTION      1.06   799.97     0  02:15      0.0305        1.75       0.606
  YS02001786           JUNCTION      0.06   792.34     0  02:15     0.00162        1.74       0.768
  YS02001788           JUNCTION      0.07   770.56     0  02:19     0.00204        1.73       0.786
  YS02001790           JUNCTION      0.15   780.52     0  02:14     0.00446        1.72       0.995
  YS02001791           JUNCTION      0.00   770.87     0  02:18           0         1.7       0.835
  YS02001793           JUNCTION      0.00   771.05     0  02:18           0        1.69       0.973
  YS02001882           JUNCTION      0.00    44.63     0  02:17           0       0.012       5.410
  YS02001884           JUNCTION      0.00    83.07     0  02:17           0      0.0463       5.661
  YS02001887           JUNCTION    277.74   277.74     0  02:13       0.401       0.433       1.021
  YS02001890           JUNCTION      0.00   251.61     0  02:14           0       0.394       1.275
  YS02001895           JUNCTION      0.00   238.09     0  02:14           0       0.389       0.345
  YS02001898           JUNCTION      0.00   236.23     0  02:17           0       0.387       0.136
  YS02001901           JUNCTION      0.00   210.09     0  02:18           0       0.389       0.814
  YS02001904           JUNCTION      0.00   212.20     0  02:26           0       0.393       0.739
  YS02001907           JUNCTION      0.00   563.48     0  02:22           0        1.22       1.458
  YS02001910           JUNCTION      0.00   383.45     0  02:20           0       0.837       0.855
  YS02001915           JUNCTION    280.96   390.80     0  02:19       0.483       0.839       0.199
  YS02001918           JUNCTION      0.00   182.95     0  02:20           0       0.356       0.087
  YS02001920           JUNCTION      2.87   176.67     0  02:17      0.0827       0.357       0.299
  YS02001923           JUNCTION      0.04   141.28     0  02:15     0.00109       0.274       0.008
  YS02001926           JUNCTION      0.05   141.67     0  02:15      0.0015       0.273       0.078
  YS02001929           JUNCTION    141.76   141.76     0  02:15       0.272       0.272      -0.002
  YS02006553           JUNCTION      0.00   564.61     0  02:22           0        1.21       0.965
  YS02006556           JUNCTION      0.00   565.03     0  02:22           0        1.22       0.669
  YS02006558           JUNCTION    343.16   809.97     0  02:15       0.552        1.75       0.195
  YS02006561           JUNCTION      0.00   809.00     0  02:15           0        1.72      -0.008
  YS02163301           JUNCTION      0.00   885.76     0  02:15           0         2.1       0.291
  YS02163601           JUNCTION      0.11  1200.51     0  02:15     0.00317        2.67       0.428
  YS02164001           JUNCTION      0.00  1200.90     0  02:15           0        2.67       0.241
  CC-1                 OUTFALL       0.00   683.00     0  00:00           0       0.208       0.000
  CC-2                 OUTFALL       0.00   683.00     0  00:00           0       0.208       0.000
  JK-1                 OUTFALL       0.00  1000.00     0  00:00           0      0.0791       0.000
  JK-2                 OUTFALL       0.00  1000.00     0  00:00           0      0.0791       0.000
  WSC                  OUTFALL       0.00   818.13     0  03:20           0        14.2       0.000
  CC-storage           STORAGE       0.00  2254.35     0  02:17           0        6.86       0.311
  JK-storage           STORAGE       0.00   810.79     0  02:13           0        1.82       0.882
  XR-storage           STORAGE     200.00   200.00     0  00:00        5.76        6.36     -41.886
  
  
  **********************
  Node Surcharge Summary
  **********************
  
  Surcharging occurs when water rises above the top of the highest conduit.
  ---------------------------------------------------------------------
                                               Max. Height   Min. Depth
                                   Hours       Above Crown    Below Rim
  Node                 Type      Surcharged         Meters       Meters
  ---------------------------------------------------------------------
  WS02006109           JUNCTION        1.11          0.015        1.805
  WS02006228           JUNCTION        1.11          0.014        2.186
  WS02006229           JUNCTION        1.12          0.024        2.426
  WS02006232           JUNCTION        1.17          0.050        1.430
  WS02006235           JUNCTION        1.12          0.053        1.237
  WS02006238           JUNCTION        1.14          0.084        1.346
  WS02006239           JUNCTION        1.13          0.062        1.228
  WS02006240           JUNCTION        1.13          0.075        1.315
  WS02006242           JUNCTION        1.22          0.171        0.649
  WS02006243           JUNCTION        1.14          0.130        0.640
  WS02006245           JUNCTION        1.14          0.140        0.710
  WS02006247           JUNCTION        1.16          0.175        0.585
  WS02006248           JUNCTION        1.14          0.134        0.246
  WS02006249           JUNCTION        1.15          0.206        0.184
  WS02006252           JUNCTION        1.76          1.100        0.000
  WS02006256           JUNCTION        3.57          2.050        0.000
  YS02001580           JUNCTION        0.01          0.450        0.000
  YS02001583           JUNCTION        0.01          0.500        0.000
  YS02001586           JUNCTION        0.16          0.510        0.000
  YS02001590           JUNCTION        0.23          0.750        0.000
  YS02001593           JUNCTION        0.23          0.694        0.146
  YS02001596           JUNCTION        0.31          0.947        0.123
  YS02001600           JUNCTION        0.41          1.190        0.000
  YS02001601           JUNCTION        0.68          1.440        0.000
  YS02001602           JUNCTION        0.59          1.270        0.000
  YS02001605           JUNCTION        0.54          1.176        0.004
  YS02001607           JUNCTION        0.17          0.637        0.043
  YS02001610           JUNCTION        0.20          0.680        0.000
  YS02001613           JUNCTION        0.16          0.655        0.045
  YS02001616           JUNCTION        0.13          0.577        0.033
  YS02001619           JUNCTION        0.11          0.533        0.077
  YS02001622           JUNCTION        0.11          0.479        0.141
  YS02001625           JUNCTION        0.27          0.651        0.129
  YS02001629           JUNCTION        0.01          0.339        0.131
  YS02001633           JUNCTION        0.28          0.643        0.417
  YS02001641           JUNCTION        0.20          0.311        0.789
  YS02001644           JUNCTION        0.14          0.171        0.749
  YS02001783           JUNCTION        0.21          1.120        0.480
  YS02001784           JUNCTION        0.22          1.056        0.434
  YS02001786           JUNCTION        0.21          1.430        0.000
  YS02001788           JUNCTION        0.21          1.325        0.155
  YS02001790           JUNCTION        5.75          1.157        0.000
  YS02001791           JUNCTION        5.76          0.926        0.994
  YS02001793           JUNCTION        5.77          2.350        0.250
  YS02001887           JUNCTION        0.02          0.028        0.922
  YS02001890           JUNCTION        0.08          0.054        0.706
  YS02001907           JUNCTION        0.28          0.303        0.647
  YS02001910           JUNCTION        0.12          0.108        0.992
  YS02006553           JUNCTION        0.29          0.307        0.883
  YS02006556           JUNCTION        0.21          0.229        1.121
  YS02006558           JUNCTION        0.21          0.206        1.194
  YS02163301           JUNCTION        0.26          0.695        0.335
  YS02163601           JUNCTION        0.30          0.535        0.545
  YS02164001           JUNCTION        0.21          0.382        0.718
  
  
  *********************
  Node Flooding Summary
  *********************
  
  Flooding refers to all water that overflows a node, whether it ponds or not.
  --------------------------------------------------------------------------
                                                             Total   Maximum
                                 Maximum   Time of Max       Flood    Ponded
                        Hours       Rate    Occurrence      Volume     Depth
  Node                 Flooded       LPS   days hr:min    10^6 ltr    Meters
  --------------------------------------------------------------------------
  WS02006252              0.01    245.63      0  00:00       0.000     0.000
  WS02006256              0.02    293.19      0  00:00       0.005     0.000
  YS02001580              0.01     67.05      0  02:15       0.000     0.000
  YS02001583              0.01     96.13      0  02:15       0.000     0.000
  YS02001586              0.01     66.34      0  02:15       0.001     0.000
  YS02001590              0.01     69.96      0  02:12       0.000     0.000
  YS02001600              0.01      0.47      0  02:15       0.000     0.000
  YS02001601              0.10    167.09      0  02:15       0.032     0.000
  YS02001602              0.01     12.47      0  02:15       0.000     0.000
  YS02001610              0.01     10.85      0  02:15       0.000     0.000
  YS02001786              0.01     71.75      0  02:15       0.000     0.000
  YS02001790              0.01     39.25      0  02:15       0.000     0.000
  JK-storage              5.75    771.11      0  02:18       1.330     0.000
  
  
  **********************
  Storage Volume Summary
  **********************
  
  ------------------------------------------------------------------------------------------------
                         Average    Avg   Evap  Exfil     Maximum    Max    Time of Max    Maximum
                          Volume   Pcnt   Pcnt   Pcnt      Volume   Pcnt     Occurrence    Outflow
  Storage Unit           1000 m³   Full   Loss   Loss     1000 m³   Full    days hr:min        LPS
  ------------------------------------------------------------------------------------------------
  CC-storage               3.261   50.9    0.0    0.0       4.011   62.6       0  02:55    1783.53
  JK-storage               0.227   77.9    0.0    0.0       0.291  100.0       0  02:15    2300.00
  XR-storage               0.031    2.2    0.0    0.0       0.600   41.7       0  00:00     380.00
  
  
  ***********************
  Outfall Loading Summary
  ***********************
  
  -----------------------------------------------------------
                         Flow       Avg       Max       Total
                         Freq      Flow      Flow      Volume
  Outfall Node           Pcnt       LPS       LPS    10^6 ltr
  -----------------------------------------------------------
  CC-1                   1.15    683.00    683.00       0.208
  CC-2                   1.15    683.00    683.00       0.208
  JK-1                   1.07    347.46   1000.00       0.079
  JK-2                   1.07    347.46   1000.00       0.079
  WSC                   99.93    526.61    818.13      14.165
  -----------------------------------------------------------
  System                20.87   2587.54   3366.35      14.740
  
  
  ********************
  Link Flow Summary
  ********************
  
  -----------------------------------------------------------------------------
                                 Maximum  Time of Max   Maximum    Max/    Max/
                                  |Flow|   Occurrence   |Veloc|    Full    Full
  Link                 Type          LPS  days hr:min     m/sec    Flow   Depth
  -----------------------------------------------------------------------------
  1                    CONDUIT    818.13     0  03:20      3.15    0.28    0.37
  WS02001211WS02001212 CONDUIT    390.85     0  03:36      0.78    0.30    0.64
  WS02001212WS02001213 CONDUIT    392.61     0  03:35      1.32    0.61    0.45
  WS02001213WS02003059 CONDUIT    395.66     0  03:35      0.85    0.65    0.75
  WS02003059WS02003060 CONDUIT    399.93     0  03:35      0.95    0.26    0.63
  WS02003060WS02003069 CONDUIT    816.00     0  03:18      1.80    0.32    0.42
  WS02003066WSF200     CONDUIT    411.81     0  02:45      2.69    0.07    0.19
  WS02003067WS02003066 CONDUIT    411.81     0  02:44      1.04    0.13    0.38
  WS02003069WS02003072 CONDUIT    816.31     0  03:19      1.55    0.39    0.47
  WS02003072WS02003073 CONDUIT    816.31     0  03:19      1.64    1.76    0.45
  WS02004138WS02004139 CONDUIT    395.20     0  00:00      3.65    0.08    0.43
  WS02004139WS02001211 CONDUIT    381.78     0  03:36      0.91    0.48    0.59
  WS02004401WS02004402 CONDUIT    411.80     0  02:36      0.99    0.49    0.77
  WS02004402WS02004403 CONDUIT    411.86     0  02:41      0.99    0.59    0.79
  WS02004403WS02004404 CONDUIT    411.76     0  02:42      0.93    0.30    0.84
  WS02004404WS02004405 CONDUIT    411.92     0  02:37      1.10    4.04    0.88
  WS02004405WS02004406 CONDUIT    412.01     0  02:37      1.03    0.81    0.88
  WS02004406WS02004407 CONDUIT    411.92     0  02:42      0.89    0.18    0.57
  WS02004407WS02004409 CONDUIT    411.89     0  02:42      1.38    0.15    0.42
  WS02004409WS02004410 CONDUIT    411.86     0  02:43      0.88    0.53    0.58
  WS02004410WS02004411 CONDUIT    411.84     0  02:43      0.84    0.56    0.60
  WS02004411WS02004412 CONDUIT    411.85     0  02:44      0.81    0.59    0.61
  WS02004412WS02004413 CONDUIT    411.84     0  02:47      0.70    0.28    0.70
  WS02004413WS02003067 CONDUIT    411.81     0  02:44      0.96    0.18    0.53
  WS02006109WS02006110 CONDUIT    411.69     0  02:28      0.84    0.79    0.94
  WS02006110WS02006113 CONDUIT    411.89     0  02:28      1.03    0.37    0.75
  WS02006111WS02006112 CONDUIT    413.87     0  02:27      1.83    0.20    0.65
  WS02006112WS02006115 CONDUIT    412.14     0  03:22      0.70    0.24    0.78
  WS02006113WS02006111 CONDUIT    423.36     0  02:35      2.25    0.51    0.40
  WS02006115WS02006116 CONDUIT    411.90     0  02:41      0.98    0.53    0.66
  WS02006116WS02004401 CONDUIT    411.88     0  02:41      1.00    0.57    0.74
  WS02006228WS02006109 CONDUIT    410.46     0  02:28      1.06    1.79    1.00
  WS02006229WS02006228 CONDUIT    410.45     0  02:28      1.13    1.36    1.00
  WS02006230WS02006229 CONDUIT    410.45     0  02:28      1.22    9.13    1.00
  WS02006231WS02006230 CONDUIT    400.16     0  02:32      1.37    6.07    0.77
  WS02006232WS02006231 CONDUIT    400.22     0  02:31      1.08    0.84    0.92
  WS02006234WS02006232 CONDUIT    400.19     0  02:32      1.40    0.81    1.00
  WS02006235WS02006234 CONDUIT    400.49     0  02:30      1.30    4.23    0.99
  WS02006238WS02006235 CONDUIT    401.42     0  02:30      1.48    0.90    1.00
  WS02006239WS02006238 CONDUIT    400.47     0  02:21      1.21    1.28    1.00
  WS02006240WS02006239 CONDUIT    400.73     0  02:31      1.30    1.26    1.00
  WS02006242WS02006240 CONDUIT    400.38     0  02:21      1.17    1.59    1.00
  WS02006243WS02006242 CONDUIT    400.40     0  02:31      1.43    0.86    1.00
  WS02006245WS02006243 CONDUIT    400.57     0  02:21      1.45    1.18    1.00
  WS02006247WS02006245 CONDUIT    400.59     0  02:21      1.43    3.18    1.00
  WS02006248WS02006247 CONDUIT    400.58     0  02:31      1.45    0.87    1.00
  WS02006249WS02006248 CONDUIT    402.06     0  07:28      1.40    2.20    1.00
  WS02006251WS02006249 CONDUIT    472.08     0  07:27      1.99    1.36    1.00
  WS02006252WS02006251 CONDUIT    404.95     0  07:26     26.11    1.49    1.00
  WS02006256WS02006235 CONDUIT    288.91     0  00:00      4.23    3.06    1.00
  WSF200WS02003060     CONDUIT    411.82     0  02:45      1.43    0.09    0.30
  YS02001580YS02001583 CONDUIT     93.02     0  02:15      0.63    0.36    1.00
  YS02001583YS02001586 CONDUIT    133.71     0  02:14      0.62    0.20    1.00
  YS02001586YS02001590 CONDUIT    237.29     0  02:15      1.28    0.42    1.00
  YS02001590YS02001593 CONDUIT    237.26     0  02:15      1.02    1.49    1.00
  YS02001593YS02001596 CONDUIT    237.35     0  02:15      1.68    0.37    1.00
  YS02001596YS02001600 CONDUIT    237.36     0  02:16      1.18    0.46    1.00
  YS02001600YS02001601 CONDUIT    237.43     0  02:15      0.84    0.41    1.00
  YS02001601YS02001602 CONDUIT    521.72     0  02:14      1.85    1.88    1.00
  YS02001602YS02001605 CONDUIT    522.41     0  02:14      1.85   11.06    1.00
  YS02001605YS02001607 CONDUIT    523.03     0  02:14      1.85    2.87    1.00
  YS02001607YS02001610 CONDUIT    524.86     0  02:14      0.67    0.50    1.00
  YS02001610YS02001613 CONDUIT    532.27     0  02:14      0.68    0.61    1.00
  YS02001613YS02001616 CONDUIT    541.05     0  02:14      0.69    0.46    1.00
  YS02001616YS02001619 CONDUIT    524.93     0  02:21      0.70    0.91    1.00
  YS02001619YS02001622 CONDUIT    892.98     0  02:14      1.23    1.32    1.00
  YS02001622YS02001625 CONDUIT    898.21     0  02:14      1.14    0.48    1.00
  YS02001625YS02001629 CONDUIT    898.55     0  02:14      1.15    0.43    1.00
  YS02001629YS02163301 CONDUIT    885.76     0  02:15      1.13    1.09    1.00
  YS02001633YS02163601 CONDUIT   1200.40     0  02:15      1.53    1.26    1.00
  YS02001641YS02001644 CONDUIT   1202.89     0  02:15      1.53    3.89    1.00
  YS02001644YS02001647 CONDUIT   1475.69     0  02:15      2.04    0.87    0.87
  YS02001647YS02001649 CONDUIT   1495.24     0  02:15      2.29    0.79    0.79
  YS02001649YS02001757 CONDUIT   1741.30     0  02:17      2.49    1.06    0.84
  YS02001652YS02001649 CONDUIT    331.84     0  02:16      0.71    0.16    0.74
  YS02001655YS02001652 CONDUIT    319.77     0  02:16      1.39    0.16    0.49
  YS02001658YS02001655 CONDUIT    270.09     0  02:14      1.90    0.11    0.31
  YS02001661YS02001658 CONDUIT    270.45     0  02:14      2.05    0.11    0.22
  YS02001664YS02001661 CONDUIT    270.71     0  02:14      1.83    0.08    0.24
  YS02001745YS02001748 CONDUIT    174.20     0  02:13      1.88    0.07    0.18
  YS02001748YS02001751 CONDUIT    174.91     0  02:13      1.58    0.09    0.20
  YS02001751YS02001754 CONDUIT    180.77     0  02:13      1.50    0.09    0.32
  YS02001754YS02001757 CONDUIT    216.05     0  02:17      0.48    0.09    0.66
  YS02001757CaochengTiaoxuchi CONDUIT   2254.35     0  02:17      3.19    0.98    0.90
  YS02001759YS02001757 CONDUIT    507.18     0  02:18      0.87    0.36    0.78
  YS02001762YS02001759 CONDUIT    340.10     0  02:18      0.58    0.39    0.71
  YS02001765YS02001762 CONDUIT    324.80     0  02:18      0.71    0.30    0.68
  YS02001767YS02001765 CONDUIT    311.86     0  02:18      0.81    0.39    0.64
  YS02001770YS02001767 CONDUIT    297.74     0  02:19      0.80    1.18    0.64
  YS02001774YS02001770 CONDUIT     60.25     0  02:21      0.15    0.04    0.66
  YS02001779YS02001774 CONDUIT     45.56     0  02:21      0.11    0.02    0.59
  YS02001783YS02001784 CONDUIT    798.91     0  02:15      1.67    1.10    1.00
  YS02001784YS02001785 CONDUIT    792.28     0  02:15      1.79    1.84    1.00
  YS02001786YS02001788 CONDUIT    770.49     0  02:19      2.22    1.48    1.00
  YS02001788YS02001790 CONDUIT    780.37     0  02:14      2.33    0.58    1.00
  YS02001790YS02001791 CONDUIT    770.87     0  02:18      2.69    0.84    1.00
  YS02001791YS02001793 CONDUIT    771.05     0  02:18      5.05    0.33    1.00
  YS02001793JiankangQianchi CONDUIT    810.79     0  02:13      1.54    0.06    1.00
  YS02001882YS02001884 CONDUIT     44.63     0  02:17      0.07    0.05    0.91
  YS02001884YS02001887 CONDUIT     83.07     0  02:17      0.11    0.11    1.00
  YS02001887YS02001890 CONDUIT    251.61     0  02:14      0.34    0.43    1.00
  YS02001890YS02001895 CONDUIT    238.09     0  02:14      0.35    0.11    0.93
  YS02001895YS02001898 CONDUIT    236.23     0  02:17      0.39    0.41    0.84
  YS02001898YS02001901 CONDUIT    210.09     0  02:18      0.36    0.14    0.92
  YS02001901YS02001904 CONDUIT    212.20     0  02:26      0.36    0.33    0.98
  YS02001904YS02001907 CONDUIT    228.06     0  02:26      0.32    0.08    0.99
  YS02001907YS02006553 CONDUIT    564.61     0  02:22      0.63    0.66    1.00
  YS02001910YS02001907 CONDUIT    383.22     0  02:20      0.49    0.22    1.00
  YS02001915YS02001910 CONDUIT    383.45     0  02:20      0.50    0.19    0.95
  YS02001918YS02001915 CONDUIT    189.07     0  02:22      0.44    0.10    0.72
  YS02001920YS02001918 CONDUIT    182.95     0  02:20      0.65    0.18    0.58
  YS02001923YS02001920 CONDUIT    173.80     0  02:17      0.75    0.08    0.49
  YS02001926YS02001923 CONDUIT    141.25     0  02:15      0.88    0.20    0.26
  YS02001929YS02001926 CONDUIT    141.62     0  02:15      0.96    0.07    0.24
  YS02006553YS02006556 CONDUIT    565.03     0  02:22      0.72    0.48    1.00
  YS02006556YS02006558 CONDUIT    565.94     0  02:22      0.72    0.45    1.00
  YS02006558YS02006561 CONDUIT    809.00     0  02:15      3.24    1.79    1.00
  YS02006561YS02001783 CONDUIT    824.55     0  02:15      2.13    0.43    0.91
  YS02163301YS02001633 CONDUIT    885.93     0  02:15      1.13    0.83    1.00
  YS02163601YS02164001 CONDUIT   1200.90     0  02:15      1.53    1.06    1.00
  YS02164001YS02001641 CONDUIT   1201.85     0  02:15      1.53    1.64    1.00
  CC-R1                PUMP       683.00     0  00:00              1.00
  CC-R2                PUMP       683.00     0  00:00              1.00
  CC-S1                PUMP       200.00     0  00:00              1.00
  CC-S2                PUMP       200.00     0  00:00              1.00
  JK-R1                PUMP      1000.00     0  00:00              1.00
  JK-R2                PUMP      1000.00     0  00:00              1.00
  JK-S                 PUMP       300.00     0  00:00              1.00
  XR-1                 PUMP        95.00     0  00:00              1.00
  XR-2                 PUMP        95.00     0  00:00              1.00
  XR-3                 PUMP        95.00     0  00:00              1.00
  XR-4                 PUMP        95.00     0  00:00              1.00
  
  
  ***************************
  Flow Classification Summary
  ***************************
  
  -------------------------------------------------------------------------------------
                      Adjusted    ---------- Fraction of Time in Flow Class ---------- 
                       /Actual         Up    Down  Sub   Sup   Up    Down  Norm  Inlet 
  Conduit               Length    Dry  Dry   Dry   Crit  Crit  Crit  Crit  Ltd   Ctrl  
  -------------------------------------------------------------------------------------
  1                       1.00   0.00  0.00  0.00  0.00  1.00  0.00  0.00  0.23  0.00
  WS02001211WS02001212    1.00   0.00  0.00  0.00  1.00  0.00  0.00  0.00  0.00  0.00
  WS02001212WS02001213    1.00   0.00  0.00  0.00  0.39  0.00  0.60  0.00  0.00  0.00
  WS02001213WS02003059    1.00   0.00  0.00  0.00  0.99  0.00  0.00  0.00  0.00  0.00
  WS02003059WS02003060    1.00   0.00  0.00  0.00  1.00  0.00  0.00  0.00  0.00  0.00
  WS02003060WS02003069    1.00   0.00  0.00  0.00  0.99  0.01  0.00  0.00  0.00  0.00
  WS02003066WSF200        1.00   0.02  0.10  0.00  0.00  0.88  0.00  0.00  0.85  0.00
  WS02003067WS02003066    1.00   0.10  0.02  0.00  0.89  0.00  0.00  0.00  0.00  0.00
  WS02003069WS02003072    1.00   0.00  0.00  0.00  0.99  0.01  0.00  0.00  0.00  0.00
  WS02003072WS02003073    1.00   0.00  0.00  0.00  0.00  0.00  0.00  1.00  0.00  0.00
  WS02004138WS02004139    1.00   0.00  0.00  0.00  0.99  0.01  0.00  0.00  1.00  0.00
  WS02004139WS02001211    1.00   0.00  0.00  0.00  1.00  0.00  0.00  0.00  0.00  0.00
  WS02004401WS02004402    1.00   0.02  0.00  0.00  0.98  0.00  0.00  0.00  0.00  0.00
  WS02004402WS02004403    1.00   0.02  0.00  0.00  0.98  0.00  0.00  0.00  0.00  0.00
  WS02004403WS02004404    1.00   0.00  0.03  0.00  0.97  0.00  0.00  0.00  0.00  0.00
  WS02004404WS02004405    1.00   0.00  0.00  0.00  1.00  0.00  0.00  0.00  0.00  0.00
  WS02004405WS02004406    1.00   0.00  0.00  0.00  1.00  0.00  0.00  0.00  0.00  0.00
  WS02004406WS02004407    1.00   0.00  0.05  0.00  0.95  0.00  0.00  0.00  0.00  0.00
  WS02004407WS02004409    1.00   0.05  0.00  0.00  0.94  0.01  0.00  0.00  0.94  0.00
  WS02004409WS02004410    1.00   0.05  0.00  0.00  0.95  0.00  0.00  0.00  0.03  0.00
  WS02004410WS02004411    1.00   0.05  0.00  0.00  0.95  0.00  0.00  0.00  0.00  0.00
  WS02004411WS02004412    1.00   0.05  0.00  0.00  0.95  0.00  0.00  0.00  0.00  0.00
  WS02004412WS02004413    1.00   0.05  0.00  0.00  0.94  0.00  0.00  0.00  0.01  0.00
  WS02004413WS02003067    1.00   0.06  0.04  0.00  0.00  0.00  0.90  0.00  0.00  0.00
  WS02006109WS02006110    1.00   0.00  0.01  0.00  0.98  0.00  0.01  0.00  0.00  0.00
  WS02006110WS02006113    1.00   0.01  0.01  0.00  0.98  0.00  0.00  0.00  0.00  0.00
  WS02006111WS02006112    1.00   0.02  0.00  0.00  0.98  0.00  0.00  0.00  0.98  0.00
  WS02006112WS02006115    1.00   0.02  0.00  0.00  0.97  0.00  0.00  0.00  0.00  0.00
  WS02006113WS02006111    1.00   0.02  0.00  0.00  0.00  0.98  0.00  0.00  0.13  0.00
  WS02006115WS02006116    1.00   0.02  0.00  0.00  0.97  0.00  0.00  0.01  0.00  0.00
  WS02006116WS02004401    1.00   0.02  0.00  0.00  0.98  0.00  0.00  0.00  0.00  0.00
  WS02006228WS02006109    1.00   0.00  0.00  0.00  1.00  0.00  0.00  0.00  0.00  0.00
  WS02006229WS02006228    1.00   0.00  0.00  0.00  0.99  0.00  0.00  0.01  0.00  0.00
  WS02006230WS02006229    1.00   0.00  0.00  0.00  0.99  0.00  0.00  0.01  0.00  0.00
  WS02006231WS02006230    1.00   0.00  0.00  0.00  0.16  0.00  0.84  0.00  0.00  0.00
  WS02006232WS02006231    1.00   0.00  0.00  0.00  0.99  0.00  0.01  0.00  0.00  0.00
  WS02006234WS02006232    1.00   0.00  0.00  0.00  1.00  0.00  0.00  0.00  0.46  0.00
  WS02006235WS02006234    1.00   0.00  0.00  0.00  0.50  0.00  0.50  0.00  0.00  0.00
  WS02006238WS02006235    1.00   0.00  0.00  0.00  1.00  0.00  0.00  0.00  0.00  0.00
  WS02006239WS02006238    1.00   0.00  0.00  0.00  1.00  0.00  0.00  0.00  0.55  0.00
  WS02006240WS02006239    1.00   0.00  0.00  0.00  0.41  0.00  0.00  0.59  0.03  0.00
  WS02006242WS02006240    1.00   0.00  0.00  0.00  0.98  0.00  0.02  0.00  0.00  0.00
  WS02006243WS02006242    1.00   0.00  0.00  0.00  0.98  0.00  0.00  0.02  0.67  0.00
  WS02006245WS02006243    1.00   0.00  0.00  0.00  0.46  0.00  0.00  0.54  0.01  0.00
  WS02006247WS02006245    1.00   0.00  0.00  0.00  0.98  0.00  0.00  0.02  0.00  0.00
  WS02006248WS02006247    1.00   0.00  0.00  0.00  0.99  0.00  0.00  0.01  0.18  0.00
  WS02006249WS02006248    1.00   0.00  0.00  0.00  0.32  0.00  0.68  0.00  0.00  0.00
  WS02006251WS02006249    1.00   0.00  0.00  0.00  0.99  0.01  0.00  0.00  0.69  0.00
  WS02006252WS02006251    1.00   0.03  0.72  0.00  0.00  0.00  0.25  0.00  0.00  0.00
  WS02006256WS02006235    1.00   0.00  0.00  0.00  1.00  0.00  0.00  0.00  0.00  0.00
  WSF200WS02003060        1.00   0.00  0.02  0.00  0.98  0.00  0.00  0.00  0.74  0.00
  YS02001580YS02001583    1.00   0.28  0.60  0.00  0.12  0.00  0.00  0.00  0.69  0.00
  YS02001583YS02001586    1.00   0.52  0.31  0.00  0.17  0.00  0.00  0.00  0.70  0.00
  YS02001586YS02001590    1.00   0.13  0.00  0.00  0.33  0.05  0.00  0.50  0.34  0.00
  YS02001590YS02001593    1.00   0.13  0.01  0.00  0.04  0.00  0.82  0.00  0.00  0.00
  YS02001593YS02001596    1.00   0.14  0.00  0.00  0.05  0.01  0.00  0.80  0.01  0.00
  YS02001596YS02001600    1.00   0.14  0.00  0.00  0.11  0.02  0.00  0.74  0.05  0.00
  YS02001600YS02001601    1.00   0.13  0.01  0.00  0.86  0.00  0.00  0.00  0.68  0.00
  YS02001601YS02001602    1.00   0.13  0.02  0.00  0.86  0.00  0.00  0.00  0.00  0.00
  YS02001602YS02001605    1.00   0.14  0.00  0.00  0.86  0.00  0.00  0.00  0.00  0.00
  YS02001605YS02001607    1.00   0.14  0.00  0.00  0.86  0.00  0.00  0.00  0.00  0.00
  YS02001607YS02001610    1.00   0.13  0.01  0.00  0.85  0.00  0.00  0.00  0.03  0.00
  YS02001610YS02001613    1.00   0.13  0.00  0.00  0.87  0.00  0.00  0.00  0.02  0.00
  YS02001613YS02001616    1.00   0.13  0.00  0.00  0.87  0.00  0.00  0.00  0.01  0.00
  YS02001616YS02001619    1.00   0.13  0.00  0.00  0.87  0.00  0.00  0.00  0.00  0.00
  YS02001619YS02001622    1.00   0.13  0.00  0.00  0.87  0.00  0.00  0.00  0.37  0.00
  YS02001622YS02001625    1.00   0.13  0.00  0.00  0.87  0.00  0.00  0.00  0.07  0.00
  YS02001625YS02001629    1.00   0.13  0.08  0.00  0.07  0.00  0.72  0.00  0.00  0.00
  YS02001629YS02163301    1.00   0.17  0.02  0.00  0.81  0.00  0.00  0.00  0.00  0.00
  YS02001633YS02163601    1.00   0.00  0.01  0.00  0.99  0.00  0.00  0.00  0.16  0.00
  YS02001641YS02001644    1.00   0.00  0.01  0.00  0.99  0.00  0.00  0.00  0.00  0.00
  YS02001644YS02001647    1.00   0.00  0.21  0.00  0.79  0.00  0.00  0.00  0.00  0.00
  YS02001647YS02001649    1.00   0.00  0.20  0.00  0.76  0.03  0.00  0.00  0.02  0.00
  YS02001649YS02001757    1.00   0.00  0.00  0.00  0.96  0.04  0.00  0.00  0.22  0.00
  YS02001652YS02001649    1.00   0.00  0.00  0.00  0.96  0.04  0.00  0.00  0.22  0.00
  YS02001655YS02001652    1.00   0.00  0.00  0.00  0.73  0.01  0.00  0.27  0.14  0.00
  YS02001658YS02001655    1.00   0.00  0.15  0.00  0.60  0.25  0.00  0.00  0.80  0.00
  YS02001661YS02001658    1.00   0.15  0.00  0.00  0.46  0.39  0.00  0.00  0.75  0.00
  YS02001664YS02001661    1.00   0.13  0.00  0.00  0.80  0.07  0.00  0.00  0.87  0.00
  YS02001745YS02001748    1.00   0.00  0.00  0.00  0.00  0.00  0.00  1.00  0.00  0.00
  YS02001748YS02001751    1.00   0.00  0.00  0.00  0.78  0.22  0.00  0.00  0.88  0.00
  YS02001751YS02001754    1.00   0.00  0.00  0.00  0.72  0.00  0.00  0.27  0.22  0.00
  YS02001754YS02001757    1.00   0.00  0.00  0.00  1.00  0.00  0.00  0.00  0.27  0.00
  YS02001757CaochengTiaoxuchi    1.00   0.00  0.00  0.00  0.98  0.02  0.00  0.00  0.26  0.00
  YS02001759YS02001757    1.00   0.00  0.00  0.00  1.00  0.00  0.00  0.00  0.09  0.00
  YS02001762YS02001759    1.00   0.00  0.00  0.00  1.00  0.00  0.00  0.00  0.07  0.00
  YS02001765YS02001762    1.00   0.00  0.00  0.00  1.00  0.00  0.00  0.00  0.20  0.00
  YS02001767YS02001765    1.00   0.00  0.00  0.00  1.00  0.00  0.00  0.00  0.00  0.00
  YS02001770YS02001767    1.00   0.00  0.00  0.00  1.00  0.00  0.00  0.00  0.00  0.00
  YS02001774YS02001770    1.00   0.00  0.14  0.00  0.86  0.00  0.00  0.00  0.05  0.00
  YS02001779YS02001774    1.00   0.00  0.00  0.00  1.00  0.00  0.00  0.00  0.23  0.00
  YS02001783YS02001784    1.00   0.00  0.21  0.00  0.79  0.00  0.00  0.00  0.01  0.00
  YS02001784YS02001785    1.00   0.00  0.00  0.00  1.00  0.00  0.00  0.00  0.20  0.00
  YS02001786YS02001788    1.00   0.00  0.00  0.00  0.95  0.05  0.00  0.00  0.00  0.00
  YS02001788YS02001790    1.00   0.00  0.00  0.00  0.94  0.06  0.00  0.00  0.23  0.00
  YS02001790YS02001791    1.00   0.00  0.00  0.00  0.73  0.27  0.00  0.00  0.03  0.00
  YS02001791YS02001793    1.00   0.00  0.00  0.00  0.72  0.28  0.00  0.00  0.00  0.00
  YS02001793JiankangQianchi    1.00   0.00  0.00  0.00  0.94  0.06  0.00  0.00  0.25  0.00
  YS02001882YS02001884    1.00   0.17  0.02  0.00  0.81  0.00  0.00  0.00  0.00  0.00
  YS02001884YS02001887    1.00   0.06  0.05  0.00  0.89  0.00  0.00  0.00  0.00  0.00
  YS02001887YS02001890    1.00   0.00  0.00  0.00  0.97  0.00  0.03  0.00  0.00  0.00
  YS02001890YS02001895    1.00   0.00  0.19  0.00  0.81  0.00  0.00  0.00  0.00  0.00
  YS02001895YS02001898    1.00   0.20  0.00  0.00  0.78  0.00  0.02  0.00  0.00  0.00
  YS02001898YS02001901    1.00   0.19  0.01  0.00  0.80  0.00  0.00  0.00  0.01  0.00
  YS02001901YS02001904    1.00   0.19  0.00  0.00  0.81  0.00  0.00  0.00  0.00  0.00
  YS02001904YS02001907    1.00   0.00  0.19  0.00  0.81  0.00  0.00  0.00  0.00  0.00
  YS02001907YS02006553    1.00   0.00  0.02  0.00  0.98  0.00  0.00  0.00  0.00  0.00
  YS02001910YS02001907    1.00   0.00  0.00  0.00  0.97  0.00  0.00  0.03  0.12  0.00
  YS02001915YS02001910    1.00   0.00  0.00  0.00  0.97  0.03  0.00  0.00  0.19  0.00
  YS02001918YS02001915    1.00   0.00  0.01  0.00  0.98  0.02  0.00  0.00  0.81  0.00
  YS02001920YS02001918    1.00   0.00  0.01  0.00  0.99  0.00  0.00  0.00  0.00  0.00
  YS02001923YS02001920    1.00   0.00  0.00  0.00  1.00  0.00  0.00  0.00  0.98  0.00
  YS02001926YS02001923    1.00   0.00  0.07  0.00  0.00  0.00  0.93  0.00  0.00  0.00
  YS02001929YS02001926    1.00   0.00  0.13  0.00  0.87  0.00  0.00  0.00  0.87  0.00
  YS02006553YS02006556    1.00   0.01  0.00  0.00  0.99  0.00  0.00  0.00  0.03  0.00
  YS02006556YS02006558    1.00   0.00  0.00  0.00  1.00  0.00  0.00  0.00  0.00  0.00
  YS02006558YS02006561    1.00   0.21  0.00  0.00  0.02  0.77  0.00  0.00  0.18  0.00
  YS02006561YS02001783    1.00   0.21  0.00  0.00  0.72  0.06  0.00  0.00  0.74  0.00
  YS02163301YS02001633    1.00   0.00  0.17  0.00  0.83  0.00  0.00  0.00  0.00  0.00
  YS02163601YS02164001    1.00   0.00  0.08  0.00  0.92  0.00  0.00  0.00  0.00  0.00
  YS02164001YS02001641    1.00   0.01  0.07  0.00  0.92  0.00  0.00  0.00  0.06  0.00
  
  
  *************************
  Conduit Surcharge Summary
  *************************
  
  ----------------------------------------------------------------------------
                                                           Hours        Hours 
                         --------- Hours Full --------   Above Full   Capacity
  Conduit                Both Ends  Upstream  Dnstream   Normal Flow   Limited
  ----------------------------------------------------------------------------
  WS02003072WS02003073        0.01      0.01      0.01      2.51         0.01
  WS02004404WS02004405        0.01      0.01      0.01      2.25         0.01
  WS02006109WS02006110        0.01      0.01      1.17      0.01         0.01
  WS02006110WS02006113        0.01      0.01      1.14      0.01         0.01
  WS02006111WS02006112        0.01      0.01      1.23      0.01         0.01
  WS02006228WS02006109        1.11      1.17      1.11      1.63         1.11
  WS02006229WS02006228        1.11      1.12      1.11      1.37         1.11
  WS02006230WS02006229        1.24      1.29      1.24      2.74         1.24
  WS02006231WS02006230        0.01      0.01      0.01      2.39         0.01
  WS02006232WS02006231        0.01      0.01      1.17      0.01         0.01
  WS02006234WS02006232        1.09      1.09      1.17      0.01         0.01
  WS02006235WS02006234        0.01      0.01      1.12      2.20         0.01
  WS02006238WS02006235        1.13      1.13      1.18      0.01         0.01
  WS02006239WS02006238        1.14      1.17      1.14      1.45         1.14
  WS02006240WS02006239        1.13      1.14      1.13      1.49         1.13
  WS02006242WS02006240        1.13      1.13      1.26      1.63         0.01
  WS02006243WS02006242        1.15      1.15      1.22      0.01         0.01
  WS02006245WS02006243        1.14      1.15      1.14      1.59         1.14
  WS02006247WS02006245        1.14      1.17      1.14      1.97         1.14
  WS02006248WS02006247        1.14      1.14      1.16      0.01         0.01
  WS02006249WS02006248        1.14      1.14      1.15      1.92         0.01
  WS02006251WS02006249        1.15      1.16      1.15      1.70         1.15
  WS02006252WS02006251        1.76      1.76      1.76      1.76         0.01
  WS02006256WS02006235        2.29      2.29      3.56      0.02         0.01
  YS02001580YS02001583        0.01      0.01      0.02      0.01         0.01
  YS02001583YS02001586        0.01      0.01      0.16      0.01         0.01
  YS02001586YS02001590        0.17      0.17      0.23      0.01         0.01
  YS02001590YS02001593        0.23      0.23      0.24      0.23         0.01
  YS02001593YS02001596        0.24      0.24      0.31      0.01         0.01
  YS02001596YS02001600        0.34      0.34      0.41      0.01         0.01
  YS02001600YS02001601        0.45      0.45      0.68      0.01         0.01
  YS02001601YS02001602        0.59      0.59      0.72      0.42         0.01
  YS02001602YS02001605        0.54      0.54      0.59      1.54         0.01
  YS02001605YS02001607        0.51      0.54      0.51      0.64         0.51
  YS02001607YS02001610        0.17      0.17      0.20      0.01         0.01
  YS02001610YS02001613        0.16      0.16      0.20      0.01         0.01
  YS02001613YS02001616        0.13      0.13      0.16      0.01         0.01
  YS02001616YS02001619        0.11      0.11      0.13      0.01         0.01
  YS02001619YS02001622        0.11      0.11      0.11      0.24         0.10
  YS02001622YS02001625        0.11      0.11      0.27      0.01         0.01
  YS02001625YS02001629        0.01      0.01      0.27      0.01         0.01
  YS02001629YS02163301        0.26      0.26      0.26      0.15         0.14
  YS02001633YS02163601        0.28      0.28      0.30      0.18         0.19
  YS02001641YS02001644        0.14      0.20      0.14      0.77         0.14
  YS02001644YS02001647        0.01      0.01      0.14      0.01         0.01
  YS02001649YS02001757        0.01      0.01      0.01      0.02         0.01
  YS02001757CaochengTiaoxuchi        0.01      0.01      5.66      0.01         0.01
  YS02001770YS02001767        0.01      0.01      0.01      0.15         0.01
  YS02001783YS02001784        0.21      0.21      0.22      0.17         0.12
  YS02001784YS02001785        0.21      0.22      0.21      0.37         0.21
  YS02001786YS02001788        0.21      0.21      0.21      0.30         0.21
  YS02001788YS02001790        0.21      0.21      5.75      0.01         0.01
  YS02001790YS02001791        5.75      5.75      5.76      0.01         0.01
  YS02001791YS02001793        5.76      5.76      5.78      0.01         0.01
  YS02001793JiankangQianchi        5.77      5.77      5.99      0.01         0.01
  YS02001884YS02001887        0.01      0.01      0.02      0.01         0.01
  YS02001887YS02001890        0.08      0.08      0.09      0.01         0.01
  YS02001890YS02001895        0.01      0.01      0.12      0.01         0.01
  YS02001904YS02001907        0.01      0.01      0.29      0.01         0.01
  YS02001907YS02006553        0.38      0.38      0.41      0.01         0.01
  YS02001910YS02001907        0.12      0.12      0.28      0.01         0.01
  YS02001915YS02001910        0.01      0.01      0.12      0.01         0.01
  YS02006553YS02006556        0.21      0.21      0.29      0.01         0.01
  YS02006556YS02006558        0.24      0.24      0.30      0.01         0.01
  YS02006558YS02006561        0.02      0.21      0.02      0.34         0.02
  YS02006561YS02001783        0.01      0.01      0.21      0.01         0.01
  YS02163301YS02001633        0.26      0.26      0.29      0.01         0.01
  YS02163601YS02164001        0.21      0.21      0.30      0.07         0.01
  YS02164001YS02001641        0.20      0.21      0.20      0.34         0.19
  
  
  ***************
  Pumping Summary
  ***************
  
  ---------------------------------------------------------------------------------------------------------
                                                  Min       Avg       Max     Total     Power    % Time Off
                        Percent   Number of      Flow      Flow      Flow    Volume     Usage    Pump Curve
  Pump                 Utilized   Start-Ups       LPS       LPS       LPS  10^6 ltr     Kw-hr    Low   High
  ---------------------------------------------------------------------------------------------------------
  CC-R1                    1.06           1      0.00    683.00    683.00     0.208      3.51    0.0  100.0
  CC-R2                    1.06           1      0.00    683.00    683.00     0.208      3.51    0.0  100.0
  CC-S1                   25.08           7      0.00    200.00    200.00     1.445      8.38    0.0    0.0
  CC-S2                   21.95           5      0.00    200.00    200.00     1.265      7.53    0.0    0.0
  JK-R1                    0.97           2      0.00    347.46   1000.00     0.078      0.47    0.0    0.0
  JK-R2                    0.97           2      0.00    347.46   1000.00     0.078      0.47    0.0    0.0
  JK-S                     0.97           2      0.00    104.30    300.00     0.023      0.44    0.0    0.0
  XR-1                   100.00           1      0.00     95.00     95.00     2.736     68.18    0.0    0.0
  XR-2                   100.00           1      0.00     95.00     95.00     2.736     68.18    0.0    0.0
  XR-3                   100.00           1      0.00     95.00     95.00     2.736     68.18    0.0    0.0
  XR-4                   100.00           1      0.00     95.00     95.00     2.736     68.18    0.0    0.0
  

  Analysis begun on:  Wed Nov  5 16:29:07 2025
  Analysis ended on:  Wed Nov  5 16:29:10 2025
  Total elapsed time: 00:00:03