
  EPA STORM WATER MANAGEMENT MODEL - VERSION 5.2 (Build 5.2.4)
  PYSWMM TOOLKIT API - VERSION v1.0 (2023-11-27)
  ------------------------------------------------------------

  WARNING 04: minimum elevation drop used for Conduit WS02004404WS02004405
  WARNING 03: negative offset ignored for Link YS02001904YS02001907
  
  ****************
  Analysis Options
  ****************
  Flow Units ............... LPS
  Process Models:
    Rainfall/Runoff ........ YES
    RDII ................... NO
    Snowmelt ............... NO
    Groundwater ............ NO
    Flow Routing ........... YES
    Ponding Allowed ........ NO
    Water Quality .......... NO
  Infiltration Method ...... HORTON
  Flow Routing Method ...... DYNWAVE
  Surcharge Method ......... EXTRAN
  Starting Date ............ 08/28/2015 08:00:00
  Ending Date .............. 08/28/2015 16:00:00
  Antecedent Dry Days ...... 8.0
  Report Time Step ......... 00:01:00
  Wet Time Step ............ 00:01:00
  Dry Time Step ............ 00:01:00
  Routing Time Step ........ 30.00 sec
  Variable Time Step ....... YES
  Maximum Trials ........... 8
  Number of Threads ........ 4
  Head Tolerance ........... 0.001500 m
  
  
  **************************        Volume         Depth
  Runoff Quantity Continuity     hectare-m            mm
  **************************     ---------       -------
  Initial LID Storage ......         0.049         1.488
  Total Precipitation ......         1.508        45.466
  Evaporation Loss .........         0.000         0.000
  Infiltration Loss ........         0.074         2.230
  Surface Runoff ...........         1.091        32.886
  Final Storage ............         0.393        11.844
  Continuity Error (%) .....        -0.015
  
  
  **************************        Volume        Volume
  Flow Routing Continuity        hectare-m      10^6 ltr
  **************************     ---------     ---------
  Dry Weather Inflow .......         0.602         6.020
  Wet Weather Inflow .......         1.091        10.909
  Groundwater Inflow .......         0.000         0.000
  RDII Inflow ..............         0.000         0.000
  External Inflow ..........         0.105         1.045
  External Outflow .........         1.531        15.305
  Flooding Loss ............         0.329         3.287
  Evaporation Loss .........         0.000         0.000
  Exfiltration Loss ........         0.000         0.000
  Initial Stored Volume ....         0.303         3.031
  Final Stored Volume ......         0.703         7.033
  Continuity Error (%) .....       -21.997
  
  
  *************************
  Highest Continuity Errors
  *************************
  Node YS02001774 (32.81%)
  Node WS02006256 (-6.17%)
  Node YS02001583 (-5.46%)
  Node YS02001884 (4.84%)
  Node YS02001754 (3.71%)
  
  
  ***************************
  Time-Step Critical Elements
  ***************************
  Link WS02006238WS02006235 (22.63%)
  Link WS02006252WS02006251 (22.04%)
  Link WS02001212WS02001213 (20.32%)
  Link WS02006235WS02006234 (12.17%)
  Link WS02003066WSF200 (4.79%)
  
  
  ********************************
  Highest Flow Instability Indexes
  ********************************
  Link WS02006113WS02006111 (44)
  Link YS02001765YS02001762 (22)
  Link YS02001762YS02001759 (22)
  Link WS02006111WS02006112 (22)
  Link YS02001759YS02001757 (20)
  
  
  *********************************
  Most Frequent Nonconverging Nodes
  *********************************
  Node CC-1 (7.22%)
  Node CC-2 (7.22%)
  Node JK-1 (7.22%)
  Node JK-2 (7.22%)
  Node WSC (7.22%)
  
  
  *************************
  Routing Time Step Summary
  *************************
  Minimum Time Step           :     0.01 sec
  Average Time Step           :     2.87 sec
  Maximum Time Step           :     6.46 sec
  % of Time in Steady State   :     0.00
  Average Iterations per Step :     2.75
  % of Steps Not Converging   :     7.22
  Time Step Frequencies       :
     30.000 - 13.228 sec      :     0.00 %
     13.228 -  5.833 sec      :    19.86 %
      5.833 -  2.572 sec      :    31.33 %
      2.572 -  1.134 sec      :    21.18 %
      1.134 -  0.500 sec      :    27.62 %
  
  
  ***************************
  Subcatchment Runoff Summary
  ***************************
  
  ------------------------------------------------------------------------------------------------------------------------------
                            Total      Total      Total      Total     Imperv       Perv      Total       Total     Peak  Runoff
                           Precip      Runon       Evap      Infil     Runoff     Runoff     Runoff      Runoff   Runoff   Coeff
  Subcatchment                 mm         mm         mm         mm         mm         mm         mm    10^6 ltr      LPS
  ------------------------------------------------------------------------------------------------------------------------------
  sub60                     45.47       0.00       0.00       1.33      29.95       2.88      32.83        0.43   286.73   0.722
  sub61                     45.47       0.00       0.00       2.04      29.92       4.28      34.20        0.63   417.20   0.752
  sub62                     45.47       0.00       0.00       0.90      31.90       1.96      33.85        0.93   571.81   0.745
  sub63                     45.47       0.00       0.00       3.75      25.63       7.05      32.68        0.74   467.56   0.719
  sub64                     45.47       0.00       0.00       1.80      29.18       3.52      32.69        0.79   465.84   0.719
  sub65                     45.47       0.00       0.00       1.65      31.49       3.21      34.69        0.96   544.04   0.763
  sub66                     45.47       0.00       0.00       4.37      24.77       6.09      30.85        1.44   696.17   0.679
  sub67                     45.47       0.00       0.00       0.90      32.71       2.03      34.74        0.65   446.80   0.764
  sub68                     45.47       0.00       0.00       1.57      28.88       3.28      32.16        0.89   567.31   0.707
  sub69                     45.47       0.00       0.00       1.42      30.55       3.98      34.53        1.28   705.30   0.760
  sub70                     45.47       0.00       0.00       4.76      24.46       7.89      32.35        0.93   403.40   0.712
  sub71                     45.47       0.00       0.00       0.83      28.97       1.77      30.74        0.80   472.61   0.676
  sub72                     45.47       0.00       0.00       0.80      31.28       1.64      32.92        0.45   242.77   0.724
  

  ***********************
  LID Performance Summary
  ***********************

  --------------------------------------------------------------------------------------------------------------------
                                         Total      Evap     Infil   Surface    Drain    Initial     Final  Continuity
                                        Inflow      Loss      Loss   Outflow   Outflow   Storage   Storage       Error
  Subcatchment      LID Control             mm        mm        mm        mm        mm        mm        mm           %
  --------------------------------------------------------------------------------------------------------------------
  sub60             GreenRoof            45.47      0.00      0.00      0.00      0.00      7.05     52.52       -0.00
  sub61             GreenRoof            45.47      0.00      0.00      0.00      0.00      7.05     52.52       -0.00
  sub62             GreenRoof            45.47      0.00      0.00      0.00      0.00      7.05     52.52       -0.00
  sub63             GreenRoof            45.47      0.00      0.00      0.00      0.00      7.05     52.52       -0.00
  sub64             GreenRoof            45.47      0.00      0.00      0.00      0.00      7.05     52.52       -0.00
  sub65             GreenRoof            45.47      0.00      0.00      0.00      0.00      7.05     52.52       -0.00
  sub66             GreenRoof            45.47      0.00      0.00      0.00      0.00      7.05     52.52       -0.00
  sub67             GreenRoof            45.47      0.00      0.00      0.00      0.00      7.05     52.52       -0.00
  sub68             GreenRoof            45.47      0.00      0.00      0.00      0.00      7.05     52.52       -0.00
  sub69             GreenRoof            45.47      0.00      0.00      0.00      0.00      7.05     52.52       -0.00
  sub70             GreenRoof            45.47      0.00      0.00      0.00      0.00      7.05     52.52       -0.00
  sub71             GreenRoof            45.47      0.00      0.00      0.00      0.00      7.05     52.52       -0.00
  sub72             GreenRoof            45.47      0.00      0.00      0.00      0.00      7.05     52.52       -0.00
  
  ******************
  Node Depth Summary
  ******************
  
  ---------------------------------------------------------------------------------
                                 Average  Maximum  Maximum  Time of Max    Reported
                                   Depth    Depth      HGL   Occurrence   Max Depth
  Node                 Type       Meters   Meters   Meters  days hr:min      Meters
  ---------------------------------------------------------------------------------
  WS02001211           JUNCTION     0.76     0.78     5.62     0  03:13        0.78
  WS02001212           JUNCTION     0.46     0.49     5.55     0  03:13        0.49
  WS02001213           JUNCTION     0.68     0.73     5.49     0  03:12        0.73
  WS02003059           JUNCTION     0.73     0.78     5.47     0  03:12        0.78
  WS02003060           JUNCTION     0.38     0.47     5.41     0  03:11        0.47
  WS02003066           JUNCTION     0.16     0.27     5.82     0  03:10        0.27
  WS02003067           JUNCTION     0.43     0.65     5.97     0  03:10        0.65
  WS02003069           JUNCTION     0.42     0.54     5.12     0  03:12        0.54
  WS02003072           JUNCTION     0.49     0.60     4.97     0  03:12        0.60
  WS02003073           JUNCTION     0.29     0.37     4.43     0  03:13        0.37
  WS02004138           JUNCTION     0.19     0.20     7.45     0  00:00        0.19
  WS02004139           JUNCTION     0.71     0.73     5.64     0  03:14        0.73
  WS02004401           JUNCTION     0.52     0.75     6.75     0  03:07        0.75
  WS02004402           JUNCTION     0.55     0.78     6.74     0  03:08        0.78
  WS02004403           JUNCTION     0.57     0.80     6.73     0  03:08        0.80
  WS02004404           JUNCTION     0.65     0.88     6.73     0  03:08        0.88
  WS02004405           JUNCTION     0.65     0.88     6.73     0  03:08        0.87
  WS02004406           JUNCTION     0.66     0.88     6.71     0  03:08        0.88
  WS02004407           JUNCTION     0.14     0.26     6.57     0  03:09        0.26
  WS02004409           JUNCTION     0.31     0.58     6.35     0  03:09        0.58
  WS02004410           JUNCTION     0.33     0.59     6.31     0  03:09        0.59
  WS02004411           JUNCTION     0.36     0.61     6.29     0  03:09        0.61
  WS02004412           JUNCTION     0.38     0.62     6.26     0  03:10        0.62
  WS02004413           JUNCTION     0.54     0.79     6.26     0  03:10        0.79
  WS02006109           JUNCTION     0.58     0.84     7.45     0  02:16        0.84
  WS02006110           JUNCTION     0.59     0.82     7.41     0  03:15        0.82
  WS02006111           JUNCTION     0.15     0.25     6.96     0  03:07        0.25
  WS02006112           JUNCTION     0.67     0.93     6.82     0  03:07        0.93
  WS02006113           JUNCTION     0.22     0.39     7.29     0  02:25        0.39
  WS02006115           JUNCTION     0.40     0.65     6.78     0  03:07        0.65
  WS02006116           JUNCTION     0.48     0.73     6.77     0  03:07        0.73
  WS02006228           JUNCTION     0.56     0.85     7.50     0  02:19        0.84
  WS02006229           JUNCTION     0.53     0.83     7.52     0  02:16        0.83
  WS02006230           JUNCTION     0.52     0.86     7.60     0  02:31        0.86
  WS02006231           JUNCTION     0.33     0.60     7.72     0  02:13        0.60
  WS02006232           JUNCTION     0.45     0.75     7.79     0  02:09        0.75
  WS02006234           JUNCTION     0.36     0.71     7.87     0  02:09        0.71
  WS02006235           JUNCTION     0.40     0.77     7.93     0  02:25        0.76
  WS02006238           JUNCTION     0.42     0.81     7.95     0  02:10        0.80
  WS02006239           JUNCTION     0.40     0.81     8.02     0  02:16        0.80
  WS02006240           JUNCTION     0.38     0.79     8.08     0  02:16        0.79
  WS02006242           JUNCTION     0.45     0.91     8.17     0  02:31        0.90
  WS02006243           JUNCTION     0.37     0.84     8.26     0  02:14        0.84
  WS02006245           JUNCTION     0.38     0.86     8.34     0  02:17        0.86
  WS02006247           JUNCTION     0.40     0.89     8.39     0  02:19        0.89
  WS02006248           JUNCTION     0.37     0.86     8.44     0  02:38        0.85
  WS02006249           JUNCTION     0.40     0.90     8.49     0  02:17        0.90
  WS02006251           JUNCTION     0.39     0.91     8.58     0  02:16        0.91
  WS02006252           JUNCTION     0.30     1.50     9.74     0  00:00        0.60
  WS02006256           JUNCTION     0.63     2.35     9.28     0  00:00        2.35
  WSF200               JUNCTION     0.13     0.25     5.48     0  03:11        0.25
  YS02001580           JUNCTION     0.05     1.05     9.59     0  02:09        0.77
  YS02001583           JUNCTION     0.08     1.02     9.52     0  02:09        0.82
  YS02001586           JUNCTION     0.13     1.13     9.30     0  02:09        1.13
  YS02001590           JUNCTION     0.21     1.40     9.26     0  02:09        1.37
  YS02001593           JUNCTION     0.15     1.31     9.17     0  02:09        1.29
  YS02001596           JUNCTION     0.23     1.67     9.09     0  02:09        1.65
  YS02001600           JUNCTION     0.46     1.87     9.00     0  02:09        1.86
  YS02001601           JUNCTION     0.71     2.06     8.90     0  02:09        2.06
  YS02001602           JUNCTION     0.63     1.87     8.77     0  02:09        1.87
  YS02001605           JUNCTION     0.61     1.78     8.68     0  02:16        1.78
  YS02001607           JUNCTION     0.62     1.65     8.49     0  02:15        1.64
  YS02001610           JUNCTION     0.66     1.68     8.48     0  02:11        1.68
  YS02001613           JUNCTION     0.62     1.66     8.50     0  02:11        1.65
  YS02001616           JUNCTION     0.55     1.60     8.52     0  02:11        1.59
  YS02001619           JUNCTION     0.54     1.59     8.52     0  02:11        1.59
  YS02001622           JUNCTION     0.55     1.57     8.47     0  02:13        1.57
  YS02001625           JUNCTION     0.81     1.78     8.38     0  02:11        1.78
  YS02001629           JUNCTION     0.83     1.85     8.40     0  02:13        1.85
  YS02001633           JUNCTION     0.91     2.00     8.45     0  02:17        1.99
  YS02001641           JUNCTION     0.90     1.99     8.42     0  02:17        1.99
  YS02001644           JUNCTION     0.90     1.92     8.35     0  02:16        1.92
  YS02001647           JUNCTION     0.71     1.77     8.38     0  02:16        1.77
  YS02001649           JUNCTION     0.88     1.99     8.38     0  02:16        1.99
  YS02001652           JUNCTION     0.70     1.66     8.25     0  02:16        1.66
  YS02001655           JUNCTION     0.50     1.48     8.33     0  02:13        1.24
  YS02001658           JUNCTION     0.28     1.38     8.52     0  02:15        0.95
  YS02001661           JUNCTION     0.12     0.71     8.11     0  02:15        0.69
  YS02001664           JUNCTION     0.04     0.26     8.18     0  02:14        0.26
  YS02001745           JUNCTION     0.04     0.45     7.97     0  02:14        0.33
  YS02001748           JUNCTION     0.32     0.89     7.97     0  02:15        0.85
  YS02001751           JUNCTION     0.47     1.21     8.09     0  02:16        1.19
  YS02001754           JUNCTION     0.67     1.65     8.25     0  02:16        1.65
  YS02001757           JUNCTION     0.97     2.06     8.32     0  02:16        2.06
  YS02001759           JUNCTION     0.88     1.98     8.34     0  02:16        1.98
  YS02001762           JUNCTION     0.85     1.87     8.27     0  02:16        1.87
  YS02001765           JUNCTION     0.81     1.77     8.22     0  02:16        1.75
  YS02001767           JUNCTION     0.78     1.88     8.36     0  02:13        1.88
  YS02001770           JUNCTION     0.78     1.95     8.44     0  02:13        1.95
  YS02001774           JUNCTION     0.85     2.05     8.47     0  02:13        2.05
  YS02001779           JUNCTION     0.61     1.68     8.37     0  02:12        1.68
  YS02001783           JUNCTION     0.46     1.77     7.91     0  02:12        1.77
  YS02001784           JUNCTION     0.51     1.70     7.77     0  02:12        1.67
  YS02001786           JUNCTION     0.52     1.52     7.55     0  02:12        1.48
  YS02001788           JUNCTION     0.54     1.34     7.31     0  02:12        1.33
  YS02001790           JUNCTION     0.78     1.84     7.49     0  02:06        1.45
  YS02001791           JUNCTION     0.90     2.72     8.19     0  02:05        1.37
  YS02001793           JUNCTION     1.38     2.43     7.26     0  02:05        1.96
  YS02001882           JUNCTION     0.24     1.83     8.55     0  02:12        1.83
  YS02001884           JUNCTION     0.33     1.93     8.55     0  02:12        1.93
  YS02001887           JUNCTION     0.40     1.98     8.51     0  02:12        1.98
  YS02001890           JUNCTION     0.43     1.81     8.32     0  02:12        1.81
  YS02001895           JUNCTION     0.21     1.70     8.45     0  02:12        1.70
  YS02001898           JUNCTION     0.22     1.77     8.51     0  02:12        1.77
  YS02001901           JUNCTION     0.33     1.86     8.47     0  02:12        1.86
  YS02001904           JUNCTION     0.31     1.77     8.40     0  02:12        1.77
  YS02001907           JUNCTION     0.63     1.96     8.25     0  02:12        1.96
  YS02001910           JUNCTION     0.42     1.97     8.48     0  02:12        1.95
  YS02001915           JUNCTION     0.24     1.92     8.64     0  02:12        1.89
  YS02001918           JUNCTION     0.11     1.81     8.88     0  02:12        1.81
  YS02001920           JUNCTION     0.19     2.11     9.12     0  02:12        2.03
  YS02001923           JUNCTION     0.08     2.03     9.29     0  02:12        1.92
  YS02001926           JUNCTION     0.12     1.90     9.35     0  02:12        1.88
  YS02001929           JUNCTION     0.06     1.78     9.47     0  02:12        1.64
  YS02006553           JUNCTION     0.63     2.07     8.35     0  02:12        2.07
  YS02006556           JUNCTION     0.60     2.10     8.41     0  02:12        2.10
  YS02006558           JUNCTION     0.65     2.17     8.44     0  02:12        2.17
  YS02006561           JUNCTION     0.13     1.39     8.05     0  02:12        1.39
  YS02163301           JUNCTION     0.85     1.92     8.43     0  02:17        1.92
  YS02163601           JUNCTION     0.95     2.05     8.45     0  02:17        2.05
  YS02164001           JUNCTION     0.89     1.99     8.45     0  02:17        1.99
  CC-1                 OUTFALL      0.00     0.00     0.00     0  00:00        0.00
  CC-2                 OUTFALL      0.00     0.00     0.00     0  00:00        0.00
  JK-1                 OUTFALL      0.00     0.00     0.00     0  00:00        0.00
  JK-2                 OUTFALL      0.00     0.00     0.00     0  00:00        0.00
  WSC                  OUTFALL      0.29     0.37     1.04     0  03:13        0.37
  CC-storage           STORAGE      1.59     2.02     7.52     0  03:03        2.02
  JK-storage           STORAGE      4.68     5.80     6.60     0  02:06        5.80
  XR-storage           STORAGE      0.23     5.00     3.00     0  00:00        4.91
  
  
  *******************
  Node Inflow Summary
  *******************
  
  -------------------------------------------------------------------------------------------------
                                  Maximum  Maximum                  Lateral       Total        Flow
                                  Lateral    Total  Time of Max      Inflow      Inflow     Balance
                                   Inflow   Inflow   Occurrence      Volume      Volume       Error
  Node                 Type           LPS      LPS  days hr:min    10^6 ltr    10^6 ltr     Percent
  -------------------------------------------------------------------------------------------------
  WS02001211           JUNCTION      7.35   389.14     0  03:38       0.212        11.1       0.355
  WS02001212           JUNCTION      0.00   390.85     0  03:41           0        11.1       0.215
  WS02001213           JUNCTION      0.00   392.60     0  03:40           0        11.1       0.251
  WS02003059           JUNCTION      0.00   395.65     0  03:40           0          11       0.347
  WS02003060           JUNCTION     16.53   816.08     0  03:11       0.476        14.8       0.192
  WS02003066           JUNCTION      0.00   411.91     0  03:10           0        3.35       0.106
  WS02003067           JUNCTION      0.00   411.91     0  03:10           0        3.36       0.229
  WS02003069           JUNCTION      0.32   816.39     0  03:11     0.00922        14.8       0.207
  WS02003072           JUNCTION      0.00   816.37     0  03:12           0        14.8       0.255
  WS02003073           JUNCTION      1.82   818.19     0  03:12      0.0524        14.8       0.288
  WS02004138           JUNCTION      0.00   380.00     0  00:00           0        10.9       0.059
  WS02004139           JUNCTION      0.32   395.52     0  00:00     0.00924        10.9       0.413
  WS02004401           JUNCTION      0.00   412.23     0  03:07           0        3.54       0.451
  WS02004402           JUNCTION      0.00   412.14     0  03:07           0        3.53       0.440
  WS02004403           JUNCTION      0.00   412.13     0  03:08           0        3.51       0.414
  WS02004404           JUNCTION      0.16   412.19     0  03:08     0.00467         3.5       0.326
  WS02004405           JUNCTION      0.04   412.24     0  03:08      0.0011        3.49       0.487
  WS02004406           JUNCTION      0.00   412.31     0  03:16           0        3.47       0.809
  WS02004407           JUNCTION      0.00   412.13     0  03:08           0        3.45       0.135
  WS02004409           JUNCTION      0.00   412.07     0  03:09           0        3.44       0.320
  WS02004410           JUNCTION      0.00   412.03     0  03:09           0        3.43       0.390
  WS02004411           JUNCTION      0.00   411.98     0  03:09           0        3.42       0.419
  WS02004412           JUNCTION      0.00   411.96     0  03:10           0         3.4       0.476
  WS02004413           JUNCTION      0.00   411.95     0  03:18           0        3.39       0.740
  WS02006109           JUNCTION      1.23   412.48     0  02:17      0.0354        3.61       0.196
  WS02006110           JUNCTION      0.00   411.95     0  02:15           0        3.61       0.300
  WS02006111           JUNCTION      0.00   423.33     0  02:11           0        3.59       0.061
  WS02006112           JUNCTION      0.00   414.23     0  03:06           0        3.59       0.666
  WS02006113           JUNCTION      0.00   412.11     0  03:07           0         3.6       0.117
  WS02006115           JUNCTION      0.00   412.65     0  03:07           0        3.57       0.367
  WS02006116           JUNCTION      0.00   412.32     0  02:26           0        3.55       0.303
  WS02006228           JUNCTION      0.00   412.32     0  02:18           0        3.58       0.091
  WS02006229           JUNCTION      0.00   410.91     0  02:16           0        3.59       0.224
  WS02006230           JUNCTION     10.28   410.56     0  02:10       0.296         3.6       0.209
  WS02006231           JUNCTION      0.00   400.41     0  02:10           0         3.3       0.017
  WS02006232           JUNCTION      0.00   400.37     0  02:10           0        3.32       0.453
  WS02006234           JUNCTION      0.00   401.63     0  02:25           0        3.31      -0.138
  WS02006235           JUNCTION      0.00   401.92     0  02:24           0        3.33       0.331
  WS02006238           JUNCTION      0.00   401.51     0  02:24           0         3.3      -0.508
  WS02006239           JUNCTION      0.00   401.25     0  02:12           0        3.28      -0.284
  WS02006240           JUNCTION      0.00   401.09     0  02:34           0        3.27      -0.151
  WS02006242           JUNCTION      0.00   400.76     0  02:12           0        3.27      -0.015
  WS02006243           JUNCTION      0.00   400.86     0  02:24           0        3.27      -0.134
  WS02006245           JUNCTION      0.00   403.60     0  02:34           0        3.29       0.710
  WS02006247           JUNCTION      0.00   401.08     0  02:34           0        3.29       0.030
  WS02006248           JUNCTION      0.00   401.11     0  02:18           0        3.29       0.083
  WS02006249           JUNCTION      0.00   471.77     0  07:37           0        3.32       0.635
  WS02006251           JUNCTION      0.08   403.95     0  07:36     0.00222        3.32      -0.017
  WS02006252           JUNCTION      0.00   400.00     0  00:00           0        3.31      -0.099
  WS02006256           JUNCTION      0.00   300.00     0  00:00           0      0.0243      -5.811
  WSF200               JUNCTION      0.00   411.90     0  03:10           0        3.35       0.094
  YS02001580           JUNCTION      0.00   115.41     0  02:09           0       0.004      -3.624
  YS02001583           JUNCTION      0.00   169.04     0  02:09           0      0.0148      -5.179
  YS02001586           JUNCTION    403.40   403.43     0  02:15       0.935       0.946       0.132
  YS02001590           JUNCTION      0.00   318.08     0  02:16           0       0.897      -0.014
  YS02001593           JUNCTION      0.00   318.35     0  02:21           0       0.897       0.016
  YS02001596           JUNCTION      0.00   317.98     0  02:16           0       0.898       0.018
  YS02001600           JUNCTION      0.00   318.15     0  02:20           0       0.902       0.230
  YS02001601           JUNCTION    705.30  1022.69     0  02:14        1.28        2.18       0.354
  YS02001602           JUNCTION      0.00   516.60     0  02:09           0         1.7       0.454
  YS02001605           JUNCTION      0.00   516.50     0  02:09           0        1.65       0.690
  YS02001607           JUNCTION      0.00   516.32     0  02:09           0        1.65       0.846
  YS02001610           JUNCTION      0.00   519.34     0  02:08           0        1.64       0.830
  YS02001613           JUNCTION      0.00   517.70     0  02:08           0        1.54       0.887
  YS02001616           JUNCTION      0.00   512.67     0  02:08           0        1.53       0.701
  YS02001619           JUNCTION    696.17   935.59     0  02:11        1.44        2.96       0.340
  YS02001622           JUNCTION      0.00   935.09     0  02:11           0        2.95       0.515
  YS02001625           JUNCTION      0.00   934.12     0  02:11           0        2.95       1.224
  YS02001629           JUNCTION      0.00   934.11     0  02:11           0        2.76       0.474
  YS02001633           JUNCTION    544.24  1396.09     0  02:11       0.961        3.69       0.799
  YS02001641           JUNCTION      0.00  1395.90     0  02:11           0        3.62       0.518
  YS02001644           JUNCTION    465.88  1808.06     0  02:12       0.786        4.38       0.559
  YS02001647           JUNCTION      0.00  1806.04     0  02:12           0        4.35       0.513
  YS02001649           JUNCTION      0.00  2054.73     0  02:12           0        5.06       0.721
  YS02001652           JUNCTION      0.00   524.73     0  02:17           0       0.755       2.345
  YS02001655           JUNCTION      0.15   526.85     0  02:17     0.00443        0.76       1.519
  YS02001658           JUNCTION      0.00   707.88     0  02:16           0       0.751       0.392
  YS02001661           JUNCTION      0.00   468.51     0  02:14           0       0.744       0.010
  YS02001664           JUNCTION    467.56   467.56     0  02:14       0.742       0.742      -0.010
  YS02001745           JUNCTION    286.73   286.73     0  02:13       0.432       0.432       0.381
  YS02001748           JUNCTION      0.04   461.52     0  02:15      0.0013       0.437       0.457
  YS02001751           JUNCTION      0.01   458.21     0  02:15    0.000317       0.448       2.568
  YS02001754           JUNCTION      0.26   359.10     0  02:15     0.00749       0.453       3.849
  YS02001757           JUNCTION      0.00  3009.35     0  02:15           0        6.86       1.320
  YS02001759           JUNCTION    417.24  1084.60     0  02:13       0.629        1.46       1.578
  YS02001762           JUNCTION      0.00   661.33     0  02:13           0       0.843       2.050
  YS02001765           JUNCTION      0.00   653.49     0  02:13           0       0.864       2.635
  YS02001767           JUNCTION      0.54   644.23     0  02:13      0.0154       0.897       3.818
  YS02001770           JUNCTION    571.96   626.44     0  02:13       0.932       0.958       2.897
  YS02001774           JUNCTION      0.00   277.13     0  02:12           0      0.0697      48.822
  YS02001779           JUNCTION      0.01   277.07     0  02:12    0.000144      0.0267      59.985
  YS02001783           JUNCTION      0.00   969.53     0  02:14           0        2.61       0.258
  YS02001784           JUNCTION      1.06   970.16     0  02:13      0.0305        2.63       0.399
  YS02001786           JUNCTION      0.06   970.40     0  02:13     0.00162        2.62       0.509
  YS02001788           JUNCTION      0.07   970.23     0  02:14     0.00204        2.61       0.516
  YS02001790           JUNCTION      0.15   970.76     0  02:13     0.00446         2.6       0.654
  YS02001791           JUNCTION      0.00   970.49     0  02:13           0        2.58       0.557
  YS02001793           JUNCTION      0.00   971.20     0  02:14           0        2.57       0.620
  YS02001882           JUNCTION      0.00    72.77     0  02:10           0      0.0124       2.465
  YS02001884           JUNCTION      0.00   113.52     0  02:09           0      0.0482       5.081
  YS02001887           JUNCTION    447.25   448.35     0  02:13       0.659       0.693       0.606
  YS02001890           JUNCTION      0.00   448.56     0  02:13           0       0.652       0.736
  YS02001895           JUNCTION      0.00   449.24     0  02:13           0       0.647       0.167
  YS02001898           JUNCTION      0.00   450.36     0  02:13           0       0.646      -0.026
  YS02001901           JUNCTION      0.00   451.46     0  02:13           0       0.649       0.474
  YS02001904           JUNCTION      0.00   449.75     0  02:13           0       0.653       0.366
  YS02001907           JUNCTION      0.00  1364.50     0  02:13           0        1.99       0.872
  YS02001910           JUNCTION      0.00   927.70     0  02:13           0        1.34       0.521
  YS02001915           JUNCTION    472.63   924.44     0  02:13       0.804        1.39       0.103
  YS02001918           JUNCTION      0.00   543.66     0  02:11           0       0.616      -0.006
  YS02001920           JUNCTION      2.87   466.10     0  02:12      0.0827       0.596      -0.016
  YS02001923           JUNCTION      0.04   580.97     0  02:11     0.00109       0.497      -0.249
  YS02001926           JUNCTION      0.05   746.86     0  02:12      0.0015       0.474      -0.094
  YS02001929           JUNCTION    242.77   614.18     0  02:12       0.453       0.458      -0.111
  YS02006553           JUNCTION      0.00   673.68     0  02:23           0        1.74       0.665
  YS02006556           JUNCTION      0.00   674.23     0  02:23           0        1.75       0.427
  YS02006558           JUNCTION    568.19   970.60     0  02:13       0.911        2.63       0.128
  YS02006561           JUNCTION      0.00   969.53     0  02:14           0        2.61      -0.022
  YS02163301           JUNCTION      0.00   931.33     0  02:11           0        2.75       0.760
  YS02163601           JUNCTION      0.11  1396.33     0  02:11     0.00317        3.66       0.802
  YS02164001           JUNCTION      0.00  1396.29     0  02:11           0        3.63       0.473
  CC-1                 OUTFALL       0.00   683.00     0  00:00           0       0.208       0.000
  CC-2                 OUTFALL       0.00   683.00     0  00:00           0       0.208       0.000
  JK-1                 OUTFALL       0.00  1000.00     0  00:00           0      0.0791       0.000
  JK-2                 OUTFALL       0.00  1000.00     0  00:00           0      0.0791       0.000
  WSC                  OUTFALL       0.00   818.18     0  03:13           0        14.7       0.000
  CC-storage           STORAGE       0.00  3015.77     0  02:15           0        8.95       0.355
  JK-storage           STORAGE       0.00   971.36     0  02:13           0        2.71       0.596
  XR-storage           STORAGE     200.00   200.00     0  00:00        5.76        6.36     -41.886
  
  
  **********************
  Node Surcharge Summary
  **********************
  
  Surcharging occurs when water rises above the top of the highest conduit.
  ---------------------------------------------------------------------
                                               Max. Height   Min. Depth
                                   Hours       Above Crown    Below Rim
  Node                 Type      Surcharged         Meters       Meters
  ---------------------------------------------------------------------
  WS02006109           JUNCTION        1.45          0.017        1.803
  WS02006228           JUNCTION        1.44          0.020        2.180
  WS02006229           JUNCTION        1.46          0.028        2.422
  WS02006232           JUNCTION        1.52          0.050        1.430
  WS02006235           JUNCTION        1.46          0.056        1.234
  WS02006238           JUNCTION        1.48          0.087        1.343
  WS02006239           JUNCTION        1.46          0.067        1.223
  WS02006240           JUNCTION        1.47          0.080        1.310
  WS02006242           JUNCTION        1.56          0.175        0.645
  WS02006243           JUNCTION        1.48          0.133        0.637
  WS02006245           JUNCTION        1.48          0.147        0.703
  WS02006247           JUNCTION        1.50          0.181        0.579
  WS02006248           JUNCTION        1.48          0.136        0.244
  WS02006249           JUNCTION        1.49          0.196        0.194
  WS02006252           JUNCTION        2.09          1.100        0.000
  WS02006256           JUNCTION        3.98          2.050        0.000
  YS02001580           JUNCTION        0.29          0.450        0.000
  YS02001583           JUNCTION        0.30          0.384        0.116
  YS02001586           JUNCTION        0.43          0.510        0.000
  YS02001590           JUNCTION        0.50          0.750        0.000
  YS02001593           JUNCTION        0.50          0.690        0.150
  YS02001596           JUNCTION        0.61          0.943        0.127
  YS02001600           JUNCTION        0.80          1.188        0.002
  YS02001601           JUNCTION        5.13          1.440        0.000
  YS02001602           JUNCTION        2.68          1.270        0.000
  YS02001605           JUNCTION        2.22          1.180        0.000
  YS02001607           JUNCTION        0.52          0.645        0.035
  YS02001610           JUNCTION        0.56          0.680        0.000
  YS02001613           JUNCTION        0.52          0.661        0.039
  YS02001616           JUNCTION        0.47          0.603        0.007
  YS02001619           JUNCTION        0.45          0.594        0.016
  YS02001622           JUNCTION        0.46          0.568        0.052
  YS02001625           JUNCTION        0.84          0.780        0.000
  YS02001629           JUNCTION        0.41          0.470        0.000
  YS02001633           JUNCTION        4.55          0.976        0.084
  YS02001641           JUNCTION        5.12          0.986        0.114
  YS02001644           JUNCTION        5.13          0.920        0.000
  YS02001647           JUNCTION        0.43          0.769        0.131
  YS02001649           JUNCTION        5.45          0.990        0.060
  YS02001652           JUNCTION        0.29          0.629        0.501
  YS02001655           JUNCTION        0.10          0.479        0.721
  YS02001658           JUNCTION        0.01          0.381        0.919
  YS02001751           JUNCTION        0.02          0.208        0.992
  YS02001754           JUNCTION        0.14          0.597        0.553
  YS02001757           JUNCTION        5.80          1.063        0.147
  YS02001759           JUNCTION        5.50          0.980        0.230
  YS02001762           JUNCTION        5.37          0.872        0.278
  YS02001765           JUNCTION        4.93          0.766        0.334
  YS02001767           JUNCTION        3.66          0.876        0.154
  YS02001770           JUNCTION        0.90          0.920        0.000
  YS02001774           JUNCTION        5.17          1.050        0.000
  YS02001779           JUNCTION        0.13          0.680        0.000
  YS02001783           JUNCTION        0.47          0.973        0.627
  YS02001784           JUNCTION        0.48          0.904        0.586
  YS02001786           JUNCTION        0.47          0.717        0.713
  YS02001788           JUNCTION        0.47          0.536        0.944
  YS02001790           JUNCTION        5.89          1.041        0.116
  YS02001791           JUNCTION        5.90          1.920        0.000
  YS02001793           JUNCTION        5.93          1.426        1.174
  YS02001882           JUNCTION        0.29          0.830        0.000
  YS02001884           JUNCTION        0.30          0.870        0.000
  YS02001887           JUNCTION        0.33          0.926        0.024
  YS02001890           JUNCTION        0.34          0.760        0.000
  YS02001895           JUNCTION        0.28          0.703        0.047
  YS02001898           JUNCTION        0.27          0.740        0.000
  YS02001901           JUNCTION        0.32          0.865        0.005
  YS02001904           JUNCTION        0.31          0.774        0.076
  YS02001907           JUNCTION        0.50          0.950        0.000
  YS02001910           JUNCTION        0.36          0.971        0.129
  YS02001915           JUNCTION        0.29          0.922        0.078
  YS02001918           JUNCTION        0.21          0.810        0.000
  YS02001920           JUNCTION        0.22          1.110        0.030
  YS02001923           JUNCTION        0.01          0.820        0.000
  YS02001926           JUNCTION        0.01          0.900        0.000
  YS02001929           JUNCTION        0.01          0.780        0.000
  YS02006553           JUNCTION        0.51          1.069        0.121
  YS02006556           JUNCTION        0.43          1.063        0.287
  YS02006558           JUNCTION        0.43          1.075        0.325
  YS02006561           JUNCTION        0.24          0.591        0.559
  YS02163301           JUNCTION        1.09          0.918        0.112
  YS02163601           JUNCTION        5.45          1.052        0.028
  YS02164001           JUNCTION        4.89          0.988        0.112
  
  
  *********************
  Node Flooding Summary
  *********************
  
  Flooding refers to all water that overflows a node, whether it ponds or not.
  --------------------------------------------------------------------------
                                                             Total   Maximum
                                 Maximum   Time of Max       Flood    Ponded
                        Hours       Rate    Occurrence      Volume     Depth
  Node                 Flooded       LPS   days hr:min    10^6 ltr    Meters
  --------------------------------------------------------------------------
  WS02006252              0.01    245.63      0  00:00       0.000     0.000
  WS02006256              0.02    293.19      0  00:00       0.005     0.000
  YS02001580              0.01     86.57      0  02:09       0.000     0.000
  YS02001586              0.20    101.32      0  02:09       0.037     0.000
  YS02001590              0.01      7.58      0  02:09       0.000     0.000
  YS02001601              0.37    624.88      0  02:14       0.473     0.000
  YS02001602              0.27     62.08      0  02:17       0.050     0.000
  YS02001605              0.01      0.29      0  02:16       0.000     0.000
  YS02001610              0.21    206.83      0  02:16       0.103     0.000
  YS02001625              0.18    508.46      0  02:16       0.158     0.000
  YS02001629              0.01     12.89      0  02:17       0.000     0.000
  YS02001644              0.01     13.27      0  02:16       0.000     0.000
  YS02001770              0.01     37.86      0  02:13       0.000     0.000
  YS02001774              0.01     14.10      0  02:13       0.000     0.000
  YS02001779              0.01    199.01      0  02:12       0.001     0.000
  YS02001791              0.01    185.21      0  02:05       0.000     0.000
  YS02001882              0.01      5.39      0  02:12       0.000     0.000
  YS02001884              0.01      5.40      0  02:12       0.000     0.000
  YS02001890              0.01     50.98      0  02:12       0.001     0.000
  YS02001898              0.01      8.31      0  02:12       0.000     0.000
  YS02001907              0.16    963.45      0  02:13       0.236     0.000
  YS02001918              0.01    246.33      0  02:13       0.003     0.000
  YS02001923              0.01    336.90      0  02:12       0.001     0.000
  YS02001926              0.01    123.74      0  02:12       0.001     0.000
  YS02001929              0.01    129.73      0  02:12       0.000     0.000
  JK-storage              5.89    970.86      0  02:14       2.216     0.000
  
  
  **********************
  Storage Volume Summary
  **********************
  
  ------------------------------------------------------------------------------------------------
                         Average    Avg   Evap  Exfil     Maximum    Max    Time of Max    Maximum
                          Volume   Pcnt   Pcnt   Pcnt      Volume   Pcnt     Occurrence    Outflow
  Storage Unit           1000 m³   Full   Loss   Loss     1000 m³   Full    days hr:min        LPS
  ------------------------------------------------------------------------------------------------
  CC-storage               4.425   69.0    0.0    0.0       5.633   87.9       0  03:03    1783.53
  JK-storage               0.235   80.6    0.0    0.0       0.291  100.0       0  02:06    2300.00
  XR-storage               0.028    1.9    0.0    0.0       0.600   41.7       0  00:00     380.00
  
  
  ***********************
  Outfall Loading Summary
  ***********************
  
  -----------------------------------------------------------
                         Flow       Avg       Max       Total
                         Freq      Flow      Flow      Volume
  Outfall Node           Pcnt       LPS       LPS    10^6 ltr
  -----------------------------------------------------------
  CC-1                   1.02    683.00    683.00       0.208
  CC-2                   1.02    683.00    683.00       0.208
  JK-1                   0.95    347.46   1000.00       0.079
  JK-2                   0.95    347.46   1000.00       0.079
  WSC                   99.94    548.38    818.18      14.730
  -----------------------------------------------------------
  System                20.77   2609.30   3366.35      15.305
  
  
  ********************
  Link Flow Summary
  ********************
  
  -----------------------------------------------------------------------------
                                 Maximum  Time of Max   Maximum    Max/    Max/
                                  |Flow|   Occurrence   |Veloc|    Full    Full
  Link                 Type          LPS  days hr:min     m/sec    Flow   Depth
  -----------------------------------------------------------------------------
  1                    CONDUIT    818.18     0  03:13      3.15    0.28    0.37
  WS02001211WS02001212 CONDUIT    390.85     0  03:41      0.78    0.30    0.64
  WS02001212WS02001213 CONDUIT    392.60     0  03:40      1.32    0.61    0.45
  WS02001213WS02003059 CONDUIT    395.65     0  03:40      0.85    0.65    0.75
  WS02003059WS02003060 CONDUIT    399.94     0  03:40      0.95    0.26    0.63
  WS02003060WS02003069 CONDUIT    816.07     0  03:11      1.80    0.32    0.42
  WS02003066WSF200     CONDUIT    411.90     0  03:10      2.69    0.07    0.19
  WS02003067WS02003066 CONDUIT    411.91     0  03:10      1.04    0.13    0.38
  WS02003069WS02003072 CONDUIT    816.37     0  03:12      1.55    0.39    0.47
  WS02003072WS02003073 CONDUIT    816.37     0  03:12      1.64    1.76    0.45
  WS02004138WS02004139 CONDUIT    395.20     0  00:00      3.65    0.08    0.43
  WS02004139WS02001211 CONDUIT    381.79     0  03:38      0.91    0.48    0.59
  WS02004401WS02004402 CONDUIT    412.14     0  03:07      0.99    0.49    0.77
  WS02004402WS02004403 CONDUIT    412.13     0  03:08      0.99    0.59    0.79
  WS02004403WS02004404 CONDUIT    412.03     0  03:08      0.93    0.30    0.84
  WS02004404WS02004405 CONDUIT    412.21     0  03:08      1.10    4.04    0.88
  WS02004405WS02004406 CONDUIT    412.31     0  03:16      1.03    0.81    0.88
  WS02004406WS02004407 CONDUIT    412.13     0  03:08      0.89    0.18    0.57
  WS02004407WS02004409 CONDUIT    412.07     0  03:09      1.36    0.15    0.42
  WS02004409WS02004410 CONDUIT    412.03     0  03:09      0.88    0.53    0.58
  WS02004410WS02004411 CONDUIT    411.98     0  03:09      0.84    0.56    0.60
  WS02004411WS02004412 CONDUIT    411.96     0  03:10      0.81    0.59    0.61
  WS02004412WS02004413 CONDUIT    411.95     0  03:18      0.70    0.28    0.70
  WS02004413WS02003067 CONDUIT    411.91     0  03:10      0.96    0.18    0.54
  WS02006109WS02006110 CONDUIT    411.95     0  02:15      0.84    0.79    0.94
  WS02006110WS02006113 CONDUIT    412.11     0  03:07      1.03    0.37    0.75
  WS02006111WS02006112 CONDUIT    414.23     0  03:06      1.83    0.20    0.65
  WS02006112WS02006115 CONDUIT    412.65     0  03:07      0.70    0.24    0.78
  WS02006113WS02006111 CONDUIT    423.33     0  02:11      2.25    0.51    0.40
  WS02006115WS02006116 CONDUIT    412.32     0  02:26      0.98    0.53    0.66
  WS02006116WS02004401 CONDUIT    412.23     0  03:07      1.00    0.57    0.74
  WS02006228WS02006109 CONDUIT    411.25     0  02:17      1.06    1.80    1.00
  WS02006229WS02006228 CONDUIT    412.32     0  02:18      1.13    1.37    1.00
  WS02006230WS02006229 CONDUIT    410.91     0  02:16      1.22    9.14    1.00
  WS02006231WS02006230 CONDUIT    400.29     0  02:10      1.37    6.07    0.77
  WS02006232WS02006231 CONDUIT    400.41     0  02:10      1.08    0.84    0.92
  WS02006234WS02006232 CONDUIT    400.37     0  02:10      1.40    0.81    1.00
  WS02006235WS02006234 CONDUIT    401.63     0  02:25      1.30    4.24    0.99
  WS02006238WS02006235 CONDUIT    401.92     0  02:24      1.48    0.90    1.00
  WS02006239WS02006238 CONDUIT    401.51     0  02:24      1.21    1.28    1.00
  WS02006240WS02006239 CONDUIT    401.25     0  02:12      1.30    1.26    1.00
  WS02006242WS02006240 CONDUIT    401.09     0  02:34      1.17    1.59    1.00
  WS02006243WS02006242 CONDUIT    400.76     0  02:12      1.43    0.86    1.00
  WS02006245WS02006243 CONDUIT    400.86     0  02:24      1.45    1.19    1.00
  WS02006247WS02006245 CONDUIT    403.60     0  02:34      1.43    3.20    1.00
  WS02006248WS02006247 CONDUIT    401.08     0  02:34      1.45    0.87    1.00
  WS02006249WS02006248 CONDUIT    401.11     0  02:18      1.40    2.20    1.00
  WS02006251WS02006249 CONDUIT    471.77     0  07:37      1.99    1.36    1.00
  WS02006252WS02006251 CONDUIT    403.87     0  07:36     24.55    1.48    1.00
  WS02006256WS02006235 CONDUIT    288.91     0  00:00      4.23    3.06    1.00
  WSF200WS02003060     CONDUIT    411.91     0  03:11      1.43    0.09    0.30
  YS02001580YS02001583 CONDUIT    115.41     0  02:09      0.68    0.45    1.00
  YS02001583YS02001586 CONDUIT    165.09     0  02:09      0.68    0.25    1.00
  YS02001586YS02001590 CONDUIT    318.08     0  02:16      1.27    0.56    1.00
  YS02001590YS02001593 CONDUIT    318.35     0  02:21      1.13    2.00    1.00
  YS02001593YS02001596 CONDUIT    317.98     0  02:16      1.62    0.50    1.00
  YS02001596YS02001600 CONDUIT    318.15     0  02:20      1.13    0.62    1.00
  YS02001600YS02001601 CONDUIT    318.11     0  02:17      1.13    0.55    1.00
  YS02001601YS02001602 CONDUIT    516.60     0  02:09      1.83    1.87    1.00
  YS02001602YS02001605 CONDUIT    516.50     0  02:09      1.83   10.93    1.00
  YS02001605YS02001607 CONDUIT    516.32     0  02:09      1.83    2.83    1.00
  YS02001607YS02001610 CONDUIT    519.34     0  02:08      0.66    0.49    1.00
  YS02001610YS02001613 CONDUIT    517.70     0  02:08      0.66    0.60    1.00
  YS02001613YS02001616 CONDUIT    512.67     0  02:08      0.66    0.44    1.00
  YS02001616YS02001619 CONDUIT    495.05     0  02:09      0.66    0.86    1.00
  YS02001619YS02001622 CONDUIT    935.09     0  02:11      1.19    1.38    1.00
  YS02001622YS02001625 CONDUIT    934.12     0  02:11      1.19    0.50    1.00
  YS02001625YS02001629 CONDUIT    934.11     0  02:11      1.19    0.44    1.00
  YS02001629YS02163301 CONDUIT    931.33     0  02:11      1.19    1.15    1.00
  YS02001633YS02163601 CONDUIT   1396.22     0  02:11      1.78    1.47    1.00
  YS02001641YS02001644 CONDUIT   1396.44     0  02:11      1.78    4.51    1.00
  YS02001644YS02001647 CONDUIT   1806.04     0  02:12      2.30    1.06    1.00
  YS02001647YS02001649 CONDUIT   1807.17     0  02:12      2.36    0.95    1.00
  YS02001649YS02001757 CONDUIT   2054.96     0  02:12      2.62    1.25    1.00
  YS02001652YS02001649 CONDUIT    523.35     0  02:17      0.76    0.26    1.00
  YS02001655YS02001652 CONDUIT    524.73     0  02:17      1.30    0.25    1.00
  YS02001658YS02001655 CONDUIT    526.69     0  02:17      1.92    0.22    1.00
  YS02001661YS02001658 CONDUIT    707.88     0  02:16      2.34    0.28    0.78
  YS02001664YS02001661 CONDUIT    468.51     0  02:14      2.25    0.15    0.48
  YS02001745YS02001748 CONDUIT    461.47     0  02:15      2.16    0.18    0.56
  YS02001748YS02001751 CONDUIT    458.20     0  02:15      1.67    0.23    0.95
  YS02001751YS02001754 CONDUIT    358.84     0  02:15      1.40    0.17    1.00
  YS02001754YS02001757 CONDUIT    357.69     0  02:15      0.46    0.14    1.00
  YS02001757CaochengTiaoxuchi CONDUIT   3015.77     0  02:15      3.84    1.31    1.00
  YS02001759YS02001757 CONDUIT   1089.12     0  02:13      1.39    0.77    1.00
  YS02001762YS02001759 CONDUIT    668.45     0  02:13      0.85    0.77    1.00
  YS02001765YS02001762 CONDUIT    661.33     0  02:13      0.84    0.62    1.00
  YS02001767YS02001765 CONDUIT    653.49     0  02:13      0.83    0.82    1.00
  YS02001770YS02001767 CONDUIT    643.69     0  02:13      0.82    2.55    1.00
  YS02001774YS02001770 CONDUIT    277.13     0  02:12      0.35    0.18    1.00
  YS02001779YS02001774 CONDUIT    277.06     0  02:12      0.36    0.14    1.00
  YS02001783YS02001784 CONDUIT    969.10     0  02:13      1.93    1.34    1.00
  YS02001784YS02001785 CONDUIT    970.34     0  02:13      1.93    2.26    1.00
  YS02001786YS02001788 CONDUIT    970.15     0  02:14      2.07    1.87    1.00
  YS02001788YS02001790 CONDUIT    970.61     0  02:13      2.07    0.72    1.00
  YS02001790YS02001791 CONDUIT    970.49     0  02:13      2.41    1.06    1.00
  YS02001791YS02001793 CONDUIT    971.20     0  02:14      4.60    0.42    1.00
  YS02001793JiankangQianchi CONDUIT    971.36     0  02:13      1.54    0.08    1.00
  YS02001882YS02001884 CONDUIT     72.77     0  02:10      0.10    0.08    1.00
  YS02001884YS02001887 CONDUIT    113.52     0  02:09      0.16    0.15    1.00
  YS02001887YS02001890 CONDUIT    448.56     0  02:13      0.57    0.77    1.00
  YS02001890YS02001895 CONDUIT    449.24     0  02:13      0.57    0.21    1.00
  YS02001895YS02001898 CONDUIT    450.36     0  02:13      0.57    0.78    1.00
  YS02001898YS02001901 CONDUIT    451.46     0  02:13      0.57    0.29    1.00
  YS02001901YS02001904 CONDUIT    449.75     0  02:13      0.57    0.70    1.00
  YS02001904YS02001907 CONDUIT    450.98     0  02:13      0.57    0.16    1.00
  YS02001907YS02006553 CONDUIT    673.68     0  02:23      0.75    0.79    1.00
  YS02001910YS02001907 CONDUIT    926.32     0  02:13      1.18    0.52    1.00
  YS02001915YS02001910 CONDUIT    927.70     0  02:13      1.18    0.46    1.00
  YS02001918YS02001915 CONDUIT    543.66     0  02:11      0.72    0.30    1.00
  YS02001920YS02001918 CONDUIT    463.23     0  02:12      0.64    0.45    1.00
  YS02001923YS02001920 CONDUIT    463.78     0  02:12      0.71    0.21    1.00
  YS02001926YS02001923 CONDUIT    535.50     0  02:12      0.96    0.76    1.00
  YS02001929YS02001926 CONDUIT    402.52     0  02:13      1.13    0.19    1.00
  YS02006553YS02006556 CONDUIT    674.23     0  02:23      0.86    0.58    1.00
  YS02006556YS02006558 CONDUIT    676.55     0  02:23      0.86    0.53    1.00
  YS02006558YS02006561 CONDUIT    969.53     0  02:14      3.43    2.14    1.00
  YS02006561YS02001783 CONDUIT    969.53     0  02:14      2.10    0.50    1.00
  YS02163301YS02001633 CONDUIT    931.87     0  02:11      1.19    0.88    1.00
  YS02163601YS02164001 CONDUIT   1396.29     0  02:11      1.78    1.24    1.00
  YS02164001YS02001641 CONDUIT   1395.90     0  02:11      1.78    1.91    1.00
  CC-R1                PUMP       683.00     0  00:00              1.00
  CC-R2                PUMP       683.00     0  00:00              1.00
  CC-S1                PUMP       200.00     0  00:00              1.00
  CC-S2                PUMP       200.00     0  00:00              1.00
  JK-R1                PUMP      1000.00     0  00:00              1.00
  JK-R2                PUMP      1000.00     0  00:00              1.00
  JK-S                 PUMP       300.00     0  00:00              1.00
  XR-1                 PUMP        95.00     0  00:00              1.00
  XR-2                 PUMP        95.00     0  00:00              1.00
  XR-3                 PUMP        95.00     0  00:00              1.00
  XR-4                 PUMP        95.00     0  00:00              1.00
  
  
  ***************************
  Flow Classification Summary
  ***************************
  
  -------------------------------------------------------------------------------------
                      Adjusted    ---------- Fraction of Time in Flow Class ---------- 
                       /Actual         Up    Down  Sub   Sup   Up    Down  Norm  Inlet 
  Conduit               Length    Dry  Dry   Dry   Crit  Crit  Crit  Crit  Ltd   Ctrl  
  -------------------------------------------------------------------------------------
  1                       1.00   0.00  0.00  0.00  0.00  1.00  0.00  0.00  0.23  0.00
  WS02001211WS02001212    1.00   0.00  0.00  0.00  1.00  0.00  0.00  0.00  0.00  0.00
  WS02001212WS02001213    1.00   0.00  0.00  0.00  0.45  0.00  0.55  0.00  0.00  0.00
  WS02001213WS02003059    1.00   0.00  0.00  0.00  0.99  0.00  0.00  0.00  0.00  0.00
  WS02003059WS02003060    1.00   0.00  0.00  0.00  1.00  0.00  0.00  0.00  0.00  0.00
  WS02003060WS02003069    1.00   0.00  0.00  0.00  0.99  0.01  0.00  0.00  0.00  0.00
  WS02003066WSF200        1.00   0.02  0.10  0.00  0.00  0.88  0.00  0.00  0.86  0.00
  WS02003067WS02003066    1.00   0.10  0.02  0.00  0.89  0.00  0.00  0.00  0.00  0.00
  WS02003069WS02003072    1.00   0.00  0.00  0.00  0.99  0.01  0.00  0.00  0.00  0.00
  WS02003072WS02003073    1.00   0.00  0.00  0.00  0.00  0.00  0.00  1.00  0.00  0.00
  WS02004138WS02004139    1.00   0.00  0.00  0.00  0.99  0.01  0.00  0.00  1.00  0.00
  WS02004139WS02001211    1.00   0.00  0.00  0.00  1.00  0.00  0.00  0.00  0.00  0.00
  WS02004401WS02004402    1.00   0.02  0.00  0.00  0.98  0.00  0.00  0.00  0.00  0.00
  WS02004402WS02004403    1.00   0.02  0.00  0.00  0.98  0.00  0.00  0.00  0.00  0.00
  WS02004403WS02004404    1.00   0.00  0.03  0.00  0.97  0.00  0.00  0.00  0.00  0.00
  WS02004404WS02004405    1.00   0.00  0.00  0.00  1.00  0.00  0.00  0.00  0.00  0.00
  WS02004405WS02004406    1.00   0.00  0.00  0.00  1.00  0.00  0.00  0.00  0.00  0.00
  WS02004406WS02004407    1.00   0.00  0.05  0.00  0.95  0.00  0.00  0.00  0.00  0.00
  WS02004407WS02004409    1.00   0.05  0.00  0.00  0.94  0.01  0.00  0.00  0.94  0.00
  WS02004409WS02004410    1.00   0.05  0.00  0.00  0.95  0.00  0.00  0.00  0.03  0.00
  WS02004410WS02004411    1.00   0.05  0.00  0.00  0.95  0.00  0.00  0.00  0.00  0.00
  WS02004411WS02004412    1.00   0.05  0.00  0.00  0.95  0.00  0.00  0.00  0.00  0.00
  WS02004412WS02004413    1.00   0.05  0.00  0.00  0.94  0.00  0.00  0.00  0.01  0.00
  WS02004413WS02003067    1.00   0.06  0.04  0.00  0.00  0.00  0.90  0.00  0.00  0.00
  WS02006109WS02006110    1.00   0.00  0.01  0.00  0.98  0.00  0.01  0.00  0.00  0.00
  WS02006110WS02006113    1.00   0.01  0.01  0.00  0.98  0.00  0.00  0.00  0.00  0.00
  WS02006111WS02006112    1.00   0.02  0.00  0.00  0.98  0.00  0.00  0.00  0.98  0.00
  WS02006112WS02006115    1.00   0.02  0.00  0.00  0.97  0.00  0.00  0.00  0.00  0.00
  WS02006113WS02006111    1.00   0.02  0.00  0.00  0.00  0.98  0.00  0.00  0.15  0.00
  WS02006115WS02006116    1.00   0.02  0.00  0.00  0.97  0.00  0.00  0.01  0.00  0.00
  WS02006116WS02004401    1.00   0.02  0.00  0.00  0.98  0.00  0.00  0.00  0.00  0.00
  WS02006228WS02006109    1.00   0.00  0.00  0.00  1.00  0.00  0.00  0.00  0.01  0.00
  WS02006229WS02006228    1.00   0.00  0.00  0.00  0.99  0.00  0.00  0.01  0.00  0.00
  WS02006230WS02006229    1.00   0.00  0.00  0.00  0.99  0.00  0.00  0.01  0.00  0.00
  WS02006231WS02006230    1.00   0.00  0.00  0.00  0.20  0.00  0.80  0.00  0.00  0.00
  WS02006232WS02006231    1.00   0.00  0.00  0.00  0.99  0.00  0.01  0.00  0.00  0.00
  WS02006234WS02006232    1.00   0.00  0.00  0.00  1.00  0.00  0.00  0.00  0.41  0.00
  WS02006235WS02006234    1.00   0.00  0.00  0.00  0.55  0.00  0.45  0.00  0.00  0.00
  WS02006238WS02006235    1.00   0.00  0.00  0.00  1.00  0.00  0.00  0.00  0.00  0.00
  WS02006239WS02006238    1.00   0.00  0.00  0.00  1.00  0.00  0.00  0.00  0.50  0.00
  WS02006240WS02006239    1.00   0.00  0.00  0.00  0.46  0.00  0.00  0.54  0.02  0.00
  WS02006242WS02006240    1.00   0.00  0.00  0.00  0.98  0.00  0.01  0.00  0.00  0.00
  WS02006243WS02006242    1.00   0.00  0.00  0.00  0.99  0.00  0.00  0.01  0.61  0.00
  WS02006245WS02006243    1.00   0.00  0.00  0.00  0.51  0.00  0.00  0.49  0.01  0.00
  WS02006247WS02006245    1.00   0.00  0.00  0.00  0.98  0.00  0.00  0.02  0.00  0.00
  WS02006248WS02006247    1.00   0.00  0.00  0.00  0.99  0.00  0.00  0.01  0.17  0.00
  WS02006249WS02006248    1.00   0.00  0.00  0.00  0.39  0.00  0.61  0.00  0.00  0.00
  WS02006251WS02006249    1.00   0.00  0.00  0.00  1.00  0.00  0.00  0.00  0.63  0.00
  WS02006252WS02006251    1.00   0.02  0.66  0.00  0.00  0.00  0.31  0.00  0.44  0.00
  WS02006256WS02006235    1.00   0.00  0.00  0.00  1.00  0.00  0.00  0.00  0.00  0.00
  WSF200WS02003060        1.00   0.00  0.02  0.00  0.98  0.00  0.00  0.00  0.70  0.00
  YS02001580YS02001583    1.00   0.27  0.58  0.00  0.15  0.00  0.00  0.00  0.67  0.00
  YS02001583YS02001586    1.00   0.49  0.30  0.00  0.20  0.00  0.00  0.00  0.67  0.00
  YS02001586YS02001590    1.00   0.13  0.00  0.00  0.38  0.04  0.00  0.46  0.35  0.00
  YS02001590YS02001593    1.00   0.13  0.01  0.00  0.08  0.00  0.79  0.00  0.00  0.00
  YS02001593YS02001596    1.00   0.14  0.00  0.00  0.10  0.02  0.00  0.74  0.04  0.00
  YS02001596YS02001600    1.00   0.14  0.00  0.00  0.78  0.01  0.00  0.08  0.21  0.00
  YS02001600YS02001601    1.00   0.13  0.01  0.00  0.86  0.00  0.00  0.00  0.06  0.00
  YS02001601YS02001602    1.00   0.13  0.01  0.00  0.86  0.00  0.00  0.00  0.00  0.00
  YS02001602YS02001605    1.00   0.14  0.00  0.00  0.86  0.00  0.00  0.00  0.00  0.00
  YS02001605YS02001607    1.00   0.14  0.00  0.00  0.86  0.00  0.00  0.00  0.00  0.00
  YS02001607YS02001610    1.00   0.13  0.01  0.00  0.86  0.00  0.00  0.00  0.02  0.00
  YS02001610YS02001613    1.00   0.13  0.00  0.00  0.87  0.00  0.00  0.00  0.01  0.00
  YS02001613YS02001616    1.00   0.13  0.00  0.00  0.87  0.00  0.00  0.00  0.01  0.00
  YS02001616YS02001619    1.00   0.13  0.00  0.00  0.87  0.00  0.00  0.00  0.00  0.00
  YS02001619YS02001622    1.00   0.13  0.00  0.00  0.87  0.00  0.00  0.00  0.00  0.00
  YS02001622YS02001625    1.00   0.13  0.00  0.00  0.87  0.00  0.00  0.00  0.06  0.00
  YS02001625YS02001629    1.00   0.13  0.06  0.00  0.75  0.00  0.06  0.00  0.00  0.00
  YS02001629YS02163301    1.00   0.16  0.01  0.00  0.83  0.00  0.00  0.00  0.00  0.00
  YS02001633YS02163601    1.00   0.00  0.01  0.00  0.99  0.00  0.00  0.00  0.15  0.00
  YS02001641YS02001644    1.00   0.00  0.01  0.00  0.99  0.00  0.00  0.00  0.00  0.00
  YS02001644YS02001647    1.00   0.00  0.18  0.00  0.82  0.00  0.00  0.00  0.00  0.00
  YS02001647YS02001649    1.00   0.00  0.18  0.00  0.78  0.04  0.00  0.00  0.02  0.00
  YS02001649YS02001757    1.00   0.00  0.00  0.00  0.95  0.05  0.00  0.00  0.20  0.00
  YS02001652YS02001649    1.00   0.00  0.00  0.00  0.96  0.04  0.00  0.00  0.19  0.00
  YS02001655YS02001652    1.00   0.00  0.00  0.00  0.75  0.01  0.00  0.24  0.01  0.00
  YS02001658YS02001655    1.00   0.00  0.14  0.00  0.73  0.12  0.00  0.00  0.07  0.00
  YS02001661YS02001658    1.00   0.14  0.00  0.00  0.72  0.13  0.00  0.00  0.40  0.00
  YS02001664YS02001661    1.00   0.13  0.00  0.00  0.78  0.10  0.00  0.00  0.87  0.00
  YS02001745YS02001748    1.00   0.00  0.00  0.00  0.72  0.00  0.00  0.28  0.71  0.00
  YS02001748YS02001751    1.00   0.00  0.00  0.00  0.87  0.13  0.00  0.00  0.13  0.00
  YS02001751YS02001754    1.00   0.00  0.00  0.00  0.74  0.00  0.00  0.26  0.01  0.00
  YS02001754YS02001757    1.00   0.00  0.00  0.00  1.00  0.00  0.00  0.00  0.25  0.00
  YS02001757CaochengTiaoxuchi    1.00   0.00  0.00  0.00  0.98  0.02  0.00  0.00  0.24  0.00
  YS02001759YS02001757    1.00   0.00  0.00  0.00  1.00  0.00  0.00  0.00  0.08  0.00
  YS02001762YS02001759    1.00   0.00  0.00  0.00  1.00  0.00  0.00  0.00  0.05  0.00
  YS02001765YS02001762    1.00   0.00  0.00  0.00  1.00  0.00  0.00  0.00  0.17  0.00
  YS02001767YS02001765    1.00   0.00  0.00  0.00  1.00  0.00  0.00  0.00  0.00  0.00
  YS02001770YS02001767    1.00   0.00  0.00  0.00  1.00  0.00  0.00  0.00  0.00  0.00
  YS02001774YS02001770    1.00   0.00  0.13  0.00  0.86  0.00  0.00  0.00  0.04  0.00
  YS02001779YS02001774    1.00   0.00  0.00  0.00  1.00  0.00  0.00  0.00  0.20  0.00
  YS02001783YS02001784    1.00   0.00  0.19  0.00  0.81  0.00  0.00  0.00  0.00  0.00
  YS02001784YS02001785    1.00   0.00  0.00  0.00  1.00  0.00  0.00  0.00  0.18  0.00
  YS02001786YS02001788    1.00   0.00  0.00  0.00  0.94  0.06  0.00  0.00  0.00  0.00
  YS02001788YS02001790    1.00   0.00  0.00  0.00  0.94  0.06  0.00  0.00  0.20  0.00
  YS02001790YS02001791    1.00   0.00  0.00  0.00  0.75  0.25  0.00  0.00  0.04  0.00
  YS02001791YS02001793    1.00   0.00  0.00  0.00  0.74  0.26  0.00  0.00  0.00  0.00
  YS02001793JiankangQianchi    1.00   0.00  0.00  0.00  0.94  0.06  0.00  0.00  0.23  0.00
  YS02001882YS02001884    1.00   0.16  0.01  0.00  0.83  0.00  0.00  0.00  0.00  0.00
  YS02001884YS02001887    1.00   0.06  0.05  0.00  0.89  0.00  0.00  0.00  0.00  0.00
  YS02001887YS02001890    1.00   0.00  0.00  0.00  0.97  0.00  0.03  0.00  0.00  0.00
  YS02001890YS02001895    1.00   0.00  0.17  0.00  0.83  0.00  0.00  0.00  0.00  0.00
  YS02001895YS02001898    1.00   0.17  0.00  0.00  0.80  0.00  0.02  0.00  0.00  0.00
  YS02001898YS02001901    1.00   0.17  0.00  0.00  0.82  0.00  0.00  0.00  0.01  0.00
  YS02001901YS02001904    1.00   0.17  0.00  0.00  0.83  0.00  0.00  0.00  0.00  0.00
  YS02001904YS02001907    1.00   0.00  0.17  0.00  0.83  0.00  0.00  0.00  0.00  0.00
  YS02001907YS02006553    1.00   0.00  0.02  0.00  0.98  0.00  0.00  0.00  0.00  0.00
  YS02001910YS02001907    1.00   0.00  0.00  0.00  0.97  0.00  0.00  0.03  0.12  0.00
  YS02001915YS02001910    1.00   0.00  0.00  0.00  0.96  0.04  0.00  0.00  0.17  0.00
  YS02001918YS02001915    1.00   0.00  0.01  0.00  0.98  0.02  0.00  0.00  0.79  0.00
  YS02001920YS02001918    1.00   0.00  0.01  0.00  0.99  0.00  0.00  0.00  0.00  0.00
  YS02001923YS02001920    1.00   0.00  0.00  0.00  1.00  0.00  0.00  0.00  0.95  0.00
  YS02001926YS02001923    1.00   0.00  0.07  0.00  0.04  0.00  0.89  0.00  0.00  0.00
  YS02001929YS02001926    1.00   0.00  0.13  0.00  0.87  0.00  0.00  0.00  0.84  0.00
  YS02006553YS02006556    1.00   0.01  0.00  0.00  0.99  0.00  0.00  0.00  0.03  0.00
  YS02006556YS02006558    1.00   0.00  0.00  0.00  1.00  0.00  0.00  0.00  0.00  0.00
  YS02006558YS02006561    1.00   0.19  0.00  0.00  0.05  0.76  0.00  0.00  0.18  0.00
  YS02006561YS02001783    1.00   0.19  0.00  0.00  0.74  0.07  0.00  0.00  0.73  0.00
  YS02163301YS02001633    1.00   0.00  0.16  0.00  0.84  0.00  0.00  0.00  0.00  0.00
  YS02163601YS02164001    1.00   0.00  0.08  0.00  0.92  0.00  0.00  0.00  0.00  0.00
  YS02164001YS02001641    1.00   0.01  0.07  0.00  0.92  0.00  0.00  0.00  0.06  0.00
  
  
  *************************
  Conduit Surcharge Summary
  *************************
  
  ----------------------------------------------------------------------------
                                                           Hours        Hours 
                         --------- Hours Full --------   Above Full   Capacity
  Conduit                Both Ends  Upstream  Dnstream   Normal Flow   Limited
  ----------------------------------------------------------------------------
  WS02003072WS02003073        0.01      0.01      0.01      2.93         0.01
  WS02004404WS02004405        0.01      0.01      0.01      2.89         0.01
  WS02006109WS02006110        0.01      0.01      1.50      0.01         0.01
  WS02006110WS02006113        0.01      0.01      1.48      0.01         0.01
  WS02006111WS02006112        0.01      0.01      1.59      0.01         0.01
  WS02006228WS02006109        1.45      1.50      1.45      2.06         1.45
  WS02006229WS02006228        1.44      1.46      1.44      1.69         1.44
  WS02006230WS02006229        1.59      1.64      1.59      3.35         1.59
  WS02006231WS02006230        0.01      0.01      0.01      3.05         0.01
  WS02006232WS02006231        0.01      0.01      1.52      0.01         0.01
  WS02006234WS02006232        1.41      1.41      1.52      0.01         0.01
  WS02006235WS02006234        0.01      0.01      1.46      2.71         0.01
  WS02006238WS02006235        1.47      1.47      1.52      0.01         0.01
  WS02006239WS02006238        1.48      1.51      1.48      1.79         1.48
  WS02006240WS02006239        1.46      1.48      1.46      1.81         1.46
  WS02006242WS02006240        1.47      1.47      1.61      1.98         0.01
  WS02006243WS02006242        1.49      1.49      1.56      0.01         0.01
  WS02006245WS02006243        1.48      1.49      1.48      1.93         1.48
  WS02006247WS02006245        1.48      1.51      1.48      2.46         1.48
  WS02006248WS02006247        1.48      1.48      1.50      0.01         0.01
  WS02006249WS02006248        1.48      1.48      1.49      2.41         0.01
  WS02006251WS02006249        1.49      1.50      1.49      2.05         1.49
  WS02006252WS02006251        2.09      2.09      2.09      2.09         0.01
  WS02006256WS02006235        2.84      2.84      3.98      0.02         0.01
  YS02001580YS02001583        0.29      0.29      0.33      0.01         0.01
  YS02001583YS02001586        0.30      0.30      0.43      0.01         0.01
  YS02001586YS02001590        0.44      0.44      0.50      0.01         0.01
  YS02001590YS02001593        0.50      0.50      0.52      0.51         0.01
  YS02001593YS02001596        0.51      0.51      0.61      0.01         0.01
  YS02001596YS02001600        0.66      0.66      0.80      0.01         0.01
  YS02001600YS02001601        0.90      0.90      5.13      0.01         0.01
  YS02001601YS02001602        2.67      2.67      5.31      0.71         0.01
  YS02001602YS02001605        2.22      2.22      2.67      1.90         0.01
  YS02001605YS02001607        2.19      2.22      5.12      0.98         0.87
  YS02001607YS02001610        0.52      0.52      0.56      0.01         0.01
  YS02001610YS02001613        0.52      0.52      0.56      0.01         0.01
  YS02001613YS02001616        0.47      0.47      0.52      0.01         0.01
  YS02001616YS02001619        0.45      0.45      0.47      0.01         0.01
  YS02001619YS02001622        0.45      0.45      0.46      0.45         0.39
  YS02001622YS02001625        0.46      0.46      0.84      0.01         0.01
  YS02001625YS02001629        0.41      0.41      0.84      0.01         0.01
  YS02001629YS02163301        0.98      0.98      1.09      0.06         0.12
  YS02001633YS02163601        4.55      4.55      5.45      0.31         0.31
  YS02001641YS02001644        5.11      5.12      5.13      1.08         1.02
  YS02001644YS02001647        0.43      0.43      5.13      0.03         0.01
  YS02001647YS02001649        0.43      0.43      5.45      0.01         0.01
  YS02001649YS02001757        5.44      5.45      5.80      0.20         0.13
  YS02001652YS02001649        0.35      0.35      5.45      0.01         0.01
  YS02001655YS02001652        0.09      0.09      0.29      0.01         0.01
  YS02001658YS02001655        0.01      0.01      0.09      0.01         0.01
  YS02001661YS02001658        0.01      0.01      0.01      0.01         0.01
  YS02001748YS02001751        0.01      0.01      0.02      0.01         0.01
  YS02001751YS02001754        0.02      0.02      0.14      0.01         0.01
  YS02001754YS02001757        0.20      0.20      5.80      0.01         0.01
  YS02001757CaochengTiaoxuchi        5.78      5.80      5.78      0.19         0.14
  YS02001759YS02001757        5.50      5.50      5.80      0.01         0.01
  YS02001762YS02001759        5.37      5.37      5.50      0.01         0.06
  YS02001765YS02001762        4.93      4.93      5.37      0.01         0.03
  YS02001767YS02001765        3.64      3.64      4.93      0.01         0.01
  YS02001770YS02001767        3.13      3.13      3.64      0.28         0.26
  YS02001774YS02001770        0.90      0.90      5.17      0.01         0.01
  YS02001779YS02001774        0.12      0.12      5.17      0.01         0.01
  YS02001783YS02001784        0.47      0.47      0.48      0.38         0.38
  YS02001784YS02001785        0.47      0.48      0.47      0.60         0.47
  YS02001786YS02001788        0.47      0.47      0.47      0.51         0.47
  YS02001788YS02001790        0.47      0.47      5.89      0.01         0.01
  YS02001790YS02001791        5.89      5.89      5.90      0.20         0.20
  YS02001791YS02001793        5.90      5.90      5.93      0.01         0.01
  YS02001793JiankangQianchi        5.93      5.93      6.19      0.01         0.01
  YS02001882YS02001884        0.29      0.29      0.30      0.01         0.01
  YS02001884YS02001887        0.32      0.32      0.33      0.01         0.01
  YS02001887YS02001890        0.34      0.34      0.36      0.01         0.01
  YS02001890YS02001895        0.28      0.28      0.37      0.01         0.01
  YS02001895YS02001898        0.27      0.27      0.28      0.01         0.01
  YS02001898YS02001901        0.28      0.28      0.32      0.01         0.01
  YS02001901YS02001904        0.31      0.31      0.32      0.01         0.01
  YS02001904YS02001907        0.31      0.31      0.51      0.01         0.01
  YS02001907YS02006553        0.62      0.62      0.66      0.01         0.01
  YS02001910YS02001907        0.36      0.36      0.50      0.01         0.01
  YS02001915YS02001910        0.29      0.29      0.36      0.01         0.01
  YS02001918YS02001915        0.21      0.21      0.29      0.01         0.01
  YS02001920YS02001918        0.21      0.21      0.22      0.01         0.01
  YS02001923YS02001920        0.15      0.15      0.22      0.01         0.01
  YS02001926YS02001923        0.01      0.01      0.01      0.01         0.01
  YS02001929YS02001926        0.01      0.01      0.01      0.01         0.01
  YS02006553YS02006556        0.43      0.43      0.51      0.01         0.01
  YS02006556YS02006558        0.47      0.47      0.53      0.01         0.01
  YS02006558YS02006561        0.32      0.43      0.32      0.57         0.32
  YS02006561YS02001783        0.24      0.24      0.47      0.01         0.01
  YS02163301YS02001633        1.09      1.09      4.96      0.01         0.01
  YS02163601YS02164001        4.89      4.89      5.45      0.07         0.01
  YS02164001YS02001641        4.89      4.89      5.12      0.54         0.50
  
  
  ***************
  Pumping Summary
  ***************
  
  ---------------------------------------------------------------------------------------------------------
                                                  Min       Avg       Max     Total     Power    % Time Off
                        Percent   Number of      Flow      Flow      Flow    Volume     Usage    Pump Curve
  Pump                 Utilized   Start-Ups       LPS       LPS       LPS  10^6 ltr     Kw-hr    Low   High
  ---------------------------------------------------------------------------------------------------------
  CC-R1                    1.06           1      0.00    683.00    683.00     0.208      3.51    0.0  100.0
  CC-R2                    1.06           1      0.00    683.00    683.00     0.208      3.51    0.0  100.0
  CC-S1                   30.31           6      0.00    200.00    200.00     1.746      8.53    0.0   13.8
  CC-S2                   27.18           6      0.00    200.00    200.00     1.565      7.94    0.0   16.6
  JK-R1                    0.97           2      0.00    347.46   1000.00     0.078      0.47    0.0    0.0
  JK-R2                    0.97           2      0.00    347.46   1000.00     0.078      0.47    0.0    0.0
  JK-S                     0.97           2      0.00    104.30    300.00     0.023      0.44    0.0    0.0
  XR-1                   100.00           1      0.00     95.00     95.00     2.736     68.18    0.0    0.0
  XR-2                   100.00           1      0.00     95.00     95.00     2.736     68.18    0.0    0.0
  XR-3                   100.00           1      0.00     95.00     95.00     2.736     68.18    0.0    0.0
  XR-4                   100.00           1      0.00     95.00     95.00     2.736     68.18    0.0    0.0
  

  Analysis begun on:  Wed Nov  5 16:28:31 2025
  Analysis ended on:  Wed Nov  5 16:28:34 2025
  Total elapsed time: 00:00:03