
  EPA STORM WATER MANAGEMENT MODEL - VERSION 5.2 (Build 5.2.4)
  PYSWMM TOOLKIT API - VERSION v1.0 (2023-11-27)
  ------------------------------------------------------------

  WARNING 04: minimum elevation drop used for Conduit WS02004404WS02004405
  WARNING 03: negative offset ignored for Link YS02001904YS02001907
  
  ****************
  Analysis Options
  ****************
  Flow Units ............... LPS
  Process Models:
    Rainfall/Runoff ........ YES
    RDII ................... NO
    Snowmelt ............... NO
    Groundwater ............ NO
    Flow Routing ........... YES
    Ponding Allowed ........ NO
    Water Quality .......... NO
  Infiltration Method ...... HORTON
  Flow Routing Method ...... DYNWAVE
  Surcharge Method ......... EXTRAN
  Starting Date ............ 08/28/2015 08:00:00
  Ending Date .............. 08/28/2015 16:00:00
  Antecedent Dry Days ...... 8.0
  Report Time Step ......... 00:01:00
  Wet Time Step ............ 00:01:00
  Dry Time Step ............ 00:01:00
  Routing Time Step ........ 30.00 sec
  Variable Time Step ....... YES
  Maximum Trials ........... 8
  Number of Threads ........ 4
  Head Tolerance ........... 0.001500 m
  
  
  **************************        Volume         Depth
  Runoff Quantity Continuity     hectare-m            mm
  **************************     ---------       -------
  Initial LID Storage ......         0.049         1.488
  Total Precipitation ......         1.109        33.436
  Evaporation Loss .........         0.000         0.000
  Infiltration Loss ........         0.069         2.072
  Surface Runoff ...........         0.781        23.556
  Final Storage ............         0.309         9.306
  Continuity Error (%) .....        -0.026
  
  
  **************************        Volume        Volume
  Flow Routing Continuity        hectare-m      10^6 ltr
  **************************     ---------     ---------
  Dry Weather Inflow .......         0.602         6.020
  Wet Weather Inflow .......         0.780         7.804
  Groundwater Inflow .......         0.000         0.000
  RDII Inflow ..............         0.000         0.000
  External Inflow ..........         0.105         1.045
  External Outflow .........         1.489        14.886
  Flooding Loss ............         0.175         1.754
  Evaporation Loss .........         0.000         0.000
  Exfiltration Loss ........         0.000         0.000
  Initial Stored Volume ....         0.303         3.031
  Final Stored Volume ......         0.585         5.855
  Continuity Error (%) .....       -25.668
  
  
  *************************
  Highest Continuity Errors
  *************************
  Node YS02001774 (16.53%)
  Node WS02006256 (-5.82%)
  Node YS02001884 (4.93%)
  Node YS02001583 (-4.30%)
  Node YS02001767 (2.58%)
  
  
  ***************************
  Time-Step Critical Elements
  ***************************
  Link WS02001212WS02001213 (28.81%)
  Link WS02006235WS02006234 (20.67%)
  Link WS02006238WS02006235 (18.87%)
  Link WS02006252WS02006251 (10.56%)
  Link WS02003066WSF200 (5.01%)
  
  
  ********************************
  Highest Flow Instability Indexes
  ********************************
  Link WS02006113WS02006111 (38)
  Link WS02006111WS02006112 (27)
  Link WS02006110WS02006113 (19)
  Link WS02006256WS02006235 (11)
  Link YS02001629YS02163301 (8)
  
  
  *********************************
  Most Frequent Nonconverging Nodes
  *********************************
  Node CC-1 (3.84%)
  Node CC-2 (3.84%)
  Node JK-1 (3.84%)
  Node JK-2 (3.84%)
  Node WSC (3.84%)
  
  
  *************************
  Routing Time Step Summary
  *************************
  Minimum Time Step           :     0.01 sec
  Average Time Step           :     3.40 sec
  Maximum Time Step           :     6.46 sec
  % of Time in Steady State   :     0.00
  Average Iterations per Step :     2.45
  % of Steps Not Converging   :     3.84
  Time Step Frequencies       :
     30.000 - 13.228 sec      :     0.00 %
     13.228 -  5.833 sec      :    27.89 %
      5.833 -  2.572 sec      :    37.92 %
      2.572 -  1.134 sec      :    16.78 %
      1.134 -  0.500 sec      :    17.40 %
  
  
  ***************************
  Subcatchment Runoff Summary
  ***************************
  
  ------------------------------------------------------------------------------------------------------------------------------
                            Total      Total      Total      Total     Imperv       Perv      Total       Total     Peak  Runoff
                           Precip      Runon       Evap      Infil     Runoff     Runoff     Runoff      Runoff   Runoff   Coeff
  Subcatchment                 mm         mm         mm         mm         mm         mm         mm    10^6 ltr      LPS
  ------------------------------------------------------------------------------------------------------------------------------
  sub60                     33.44       0.00       0.00       1.28      21.78       1.82      23.60        0.31   189.06   0.706
  sub61                     33.44       0.00       0.00       1.95      21.76       2.70      24.46        0.45   269.05   0.731
  sub62                     33.44       0.00       0.00       0.87      23.19       1.24      24.43        0.67   371.22   0.731
  sub63                     33.44       0.00       0.00       3.53      18.64       4.41      23.05        0.52   285.87   0.689
  sub64                     33.44       0.00       0.00       1.70      21.21       2.21      23.42        0.56   287.99   0.700
  sub65                     33.44       0.00       0.00       1.56      22.89       2.01      24.90        0.69   332.58   0.745
  sub66                     33.44       0.00       0.00       4.00      18.00       3.69      21.69        1.01   399.86   0.649
  sub67                     33.44       0.00       0.00       0.87      23.79       1.28      25.07        0.47   307.30   0.750
  sub68                     33.44       0.00       0.00       1.50      21.00       2.07      23.07        0.63   367.63   0.690
  sub69                     33.44       0.00       0.00       1.31      22.45       2.66      25.11        0.93   448.72   0.751
  sub70                     33.44       0.00       0.00       4.25      17.96       5.06      23.02        0.67   238.33   0.688
  sub71                     33.44       0.00       0.00       0.80      21.06       1.11      22.18        0.58   298.44   0.663
  sub72                     33.44       0.00       0.00       0.76      22.74       1.03      23.77        0.33   147.69   0.711
  

  ***********************
  LID Performance Summary
  ***********************

  --------------------------------------------------------------------------------------------------------------------
                                         Total      Evap     Infil   Surface    Drain    Initial     Final  Continuity
                                        Inflow      Loss      Loss   Outflow   Outflow   Storage   Storage       Error
  Subcatchment      LID Control             mm        mm        mm        mm        mm        mm        mm           %
  --------------------------------------------------------------------------------------------------------------------
  sub60             GreenRoof            33.44      0.00      0.00      0.00      0.00      7.05     40.50       -0.02
  sub61             GreenRoof            33.44      0.00      0.00      0.00      0.00      7.05     40.50       -0.02
  sub62             GreenRoof            33.44      0.00      0.00      0.00      0.00      7.05     40.50       -0.02
  sub63             GreenRoof            33.44      0.00      0.00      0.00      0.00      7.05     40.50       -0.02
  sub64             GreenRoof            33.44      0.00      0.00      0.00      0.00      7.05     40.50       -0.02
  sub65             GreenRoof            33.44      0.00      0.00      0.00      0.00      7.05     40.50       -0.02
  sub66             GreenRoof            33.44      0.00      0.00      0.00      0.00      7.05     40.50       -0.02
  sub67             GreenRoof            33.44      0.00      0.00      0.00      0.00      7.05     40.50       -0.02
  sub68             GreenRoof            33.44      0.00      0.00      0.00      0.00      7.05     40.50       -0.02
  sub69             GreenRoof            33.44      0.00      0.00      0.00      0.00      7.05     40.50       -0.02
  sub70             GreenRoof            33.44      0.00      0.00      0.00      0.00      7.05     40.50       -0.02
  sub71             GreenRoof            33.44      0.00      0.00      0.00      0.00      7.05     40.50       -0.02
  sub72             GreenRoof            33.44      0.00      0.00      0.00      0.00      7.05     40.50       -0.02
  
  ******************
  Node Depth Summary
  ******************
  
  ---------------------------------------------------------------------------------
                                 Average  Maximum  Maximum  Time of Max    Reported
                                   Depth    Depth      HGL   Occurrence   Max Depth
  Node                 Type       Meters   Meters   Meters  days hr:min      Meters
  ---------------------------------------------------------------------------------
  WS02001211           JUNCTION     0.76     0.78     5.62     0  03:21        0.78
  WS02001212           JUNCTION     0.46     0.49     5.55     0  03:20        0.49
  WS02001213           JUNCTION     0.68     0.73     5.49     0  03:20        0.73
  WS02003059           JUNCTION     0.72     0.78     5.47     0  03:20        0.78
  WS02003060           JUNCTION     0.37     0.47     5.41     0  02:25        0.47
  WS02003066           JUNCTION     0.14     0.27     5.82     0  02:25        0.27
  WS02003067           JUNCTION     0.41     0.65     5.97     0  02:24        0.65
  WS02003069           JUNCTION     0.41     0.54     5.12     0  03:20        0.54
  WS02003072           JUNCTION     0.48     0.60     4.97     0  03:20        0.60
  WS02003073           JUNCTION     0.28     0.37     4.43     0  03:18        0.37
  WS02004138           JUNCTION     0.19     0.20     7.45     0  00:00        0.19
  WS02004139           JUNCTION     0.71     0.73     5.64     0  03:22        0.73
  WS02004401           JUNCTION     0.49     0.75     6.75     0  02:19        0.75
  WS02004402           JUNCTION     0.53     0.78     6.74     0  02:19        0.78
  WS02004403           JUNCTION     0.55     0.80     6.73     0  02:19        0.80
  WS02004404           JUNCTION     0.63     0.88     6.73     0  02:19        0.88
  WS02004405           JUNCTION     0.62     0.87     6.72     0  02:19        0.87
  WS02004406           JUNCTION     0.64     0.88     6.71     0  02:22        0.88
  WS02004407           JUNCTION     0.12     0.26     6.57     0  02:20        0.26
  WS02004409           JUNCTION     0.28     0.57     6.34     0  02:20        0.57
  WS02004410           JUNCTION     0.30     0.59     6.31     0  02:23        0.59
  WS02004411           JUNCTION     0.33     0.61     6.29     0  02:21        0.61
  WS02004412           JUNCTION     0.36     0.62     6.26     0  02:24        0.62
  WS02004413           JUNCTION     0.51     0.79     6.26     0  02:24        0.79
  WS02006109           JUNCTION     0.55     0.83     7.45     0  02:20        0.83
  WS02006110           JUNCTION     0.56     0.82     7.41     0  02:20        0.82
  WS02006111           JUNCTION     0.14     0.25     6.96     0  02:18        0.25
  WS02006112           JUNCTION     0.64     0.93     6.82     0  02:18        0.93
  WS02006113           JUNCTION     0.21     0.39     7.29     0  03:21        0.39
  WS02006115           JUNCTION     0.38     0.65     6.78     0  02:18        0.64
  WS02006116           JUNCTION     0.46     0.73     6.77     0  02:18        0.73
  WS02006228           JUNCTION     0.54     0.84     7.49     0  02:20        0.84
  WS02006229           JUNCTION     0.51     0.84     7.53     0  01:49        0.82
  WS02006230           JUNCTION     0.49     0.86     7.60     0  02:21        0.86
  WS02006231           JUNCTION     0.30     0.60     7.72     0  02:21        0.60
  WS02006232           JUNCTION     0.42     0.75     7.79     0  02:21        0.75
  WS02006234           JUNCTION     0.33     0.71     7.87     0  02:22        0.71
  WS02006235           JUNCTION     0.37     0.75     7.92     0  01:57        0.75
  WS02006238           JUNCTION     0.40     0.79     7.94     0  01:54        0.79
  WS02006239           JUNCTION     0.37     0.80     8.01     0  01:57        0.80
  WS02006240           JUNCTION     0.36     0.78     8.08     0  02:22        0.78
  WS02006242           JUNCTION     0.43     0.89     8.16     0  01:57        0.89
  WS02006243           JUNCTION     0.36     0.84     8.26     0  01:54        0.83
  WS02006245           JUNCTION     0.37     0.84     8.33     0  01:54        0.84
  WS02006247           JUNCTION     0.39     0.88     8.38     0  01:54        0.88
  WS02006248           JUNCTION     0.36     0.85     8.44     0  01:57        0.85
  WS02006249           JUNCTION     0.39     0.89     8.49     0  01:54        0.88
  WS02006251           JUNCTION     0.39     0.91     8.58     0  02:22        0.91
  WS02006252           JUNCTION     0.28     1.50     9.74     0  00:00        0.59
  WS02006256           JUNCTION     0.60     2.35     9.28     0  00:00        2.35
  WSF200               JUNCTION     0.11     0.25     5.48     0  02:25        0.25
  YS02001580           JUNCTION     0.05     1.01     9.55     0  01:41        0.60
  YS02001583           JUNCTION     0.08     1.05     9.55     0  01:41        0.64
  YS02001586           JUNCTION     0.14     1.13     9.30     0  01:41        1.08
  YS02001590           JUNCTION     0.22     1.40     9.26     0  01:41        1.40
  YS02001593           JUNCTION     0.17     1.34     9.20     0  01:41        1.32
  YS02001596           JUNCTION     0.23     1.69     9.11     0  01:41        1.60
  YS02001600           JUNCTION     0.30     1.87     9.00     0  01:41        1.82
  YS02001601           JUNCTION     0.52     2.06     8.90     0  01:40        2.06
  YS02001602           JUNCTION     0.43     1.87     8.77     0  01:41        1.84
  YS02001605           JUNCTION     0.39     1.78     8.68     0  01:41        1.63
  YS02001607           JUNCTION     0.38     1.66     8.51     0  01:41        1.33
  YS02001610           JUNCTION     0.42     1.68     8.48     0  01:41        1.37
  YS02001613           JUNCTION     0.38     1.69     8.53     0  01:41        1.31
  YS02001616           JUNCTION     0.31     1.61     8.52     0  01:41        1.23
  YS02001619           JUNCTION     0.29     1.60     8.52     0  01:41        1.20
  YS02001622           JUNCTION     0.30     1.54     8.45     0  01:41        1.18
  YS02001625           JUNCTION     0.55     1.74     8.35     0  01:41        1.41
  YS02001629           JUNCTION     0.58     1.85     8.40     0  01:41        1.41
  YS02001633           JUNCTION     0.65     1.76     8.21     0  01:41        1.42
  YS02001641           JUNCTION     0.64     1.36     7.80     0  01:41        1.20
  YS02001644           JUNCTION     0.63     1.21     7.64     0  01:41        1.13
  YS02001647           JUNCTION     0.44     0.78     7.39     0  01:42        0.77
  YS02001649           JUNCTION     0.61     0.89     7.28     0  01:43        0.86
  YS02001652           JUNCTION     0.44     0.68     7.27     0  01:43        0.65
  YS02001655           JUNCTION     0.22     0.42     7.27     0  01:42        0.42
  YS02001658           JUNCTION     0.05     0.24     7.38     0  01:39        0.24
  YS02001661           JUNCTION     0.11     0.30     7.70     0  01:40        0.30
  YS02001664           JUNCTION     0.04     0.20     8.13     0  01:40        0.20
  YS02001745           JUNCTION     0.04     0.18     7.70     0  01:39        0.18
  YS02001748           JUNCTION     0.05     0.21     7.29     0  01:39        0.21
  YS02001751           JUNCTION     0.18     0.33     7.21     0  02:30        0.33
  YS02001754           JUNCTION     0.41     0.66     7.27     0  02:24        0.65
  YS02001757           JUNCTION     0.71     0.96     7.22     0  02:26        0.96
  YS02001759           JUNCTION     0.62     0.85     7.21     0  02:31        0.84
  YS02001762           JUNCTION     0.59     0.80     7.20     0  02:29        0.80
  YS02001765           JUNCTION     0.55     0.77     7.22     0  02:32        0.77
  YS02001767           JUNCTION     0.52     0.71     7.20     0  02:32        0.71
  YS02001770           JUNCTION     0.52     0.69     7.19     0  01:45        0.69
  YS02001774           JUNCTION     0.58     0.77     7.19     0  01:44        0.76
  YS02001779           JUNCTION     0.35     0.51     7.20     0  01:44        0.50
  YS02001783           JUNCTION     0.47     1.39     7.53     0  01:46        1.14
  YS02001784           JUNCTION     0.52     1.68     7.75     0  01:46        1.13
  YS02001786           JUNCTION     0.53     1.86     7.89     0  01:46        1.03
  YS02001788           JUNCTION     0.56     1.88     7.86     0  01:46        0.96
  YS02001790           JUNCTION     0.83     1.96     7.60     0  01:45        1.18
  YS02001791           JUNCTION     0.95     2.72     8.19     0  01:45        1.23
  YS02001793           JUNCTION     1.46     2.46     7.29     0  01:45        1.79
  YS02001882           JUNCTION     0.23     0.99     7.70     0  01:47        0.98
  YS02001884           JUNCTION     0.32     1.08     7.70     0  01:47        1.06
  YS02001887           JUNCTION     0.39     1.15     7.69     0  01:47        1.13
  YS02001890           JUNCTION     0.42     1.16     7.67     0  01:47        1.15
  YS02001895           JUNCTION     0.20     0.90     7.65     0  01:47        0.90
  YS02001898           JUNCTION     0.21     0.92     7.66     0  01:48        0.90
  YS02001901           JUNCTION     0.32     1.07     7.68     0  01:48        1.02
  YS02001904           JUNCTION     0.30     1.06     7.69     0  01:48        1.00
  YS02001907           JUNCTION     0.61     1.38     7.67     0  01:48        1.34
  YS02001910           JUNCTION     0.41     1.15     7.66     0  01:48        1.14
  YS02001915           JUNCTION     0.23     0.95     7.67     0  01:49        0.95
  YS02001918           JUNCTION     0.10     0.60     7.66     0  01:48        0.60
  YS02001920           JUNCTION     0.18     0.66     7.67     0  01:49        0.65
  YS02001923           JUNCTION     0.06     0.42     7.68     0  01:48        0.40
  YS02001926           JUNCTION     0.10     0.32     7.76     0  01:43        0.32
  YS02001929           JUNCTION     0.04     0.18     7.87     0  01:43        0.18
  YS02006553           JUNCTION     0.62     1.39     7.67     0  01:46        1.34
  YS02006556           JUNCTION     0.59     1.36     7.67     0  01:46        1.30
  YS02006558           JUNCTION     0.63     1.40     7.66     0  01:46        1.35
  YS02006561           JUNCTION     0.12     0.71     7.37     0  01:46        0.69
  YS02163301           JUNCTION     0.60     1.79     8.31     0  01:41        1.40
  YS02163601           JUNCTION     0.69     1.61     8.01     0  01:41        1.35
  YS02164001           JUNCTION     0.62     1.45     7.91     0  01:41        1.23
  CC-1                 OUTFALL      0.00     0.00     0.00     0  00:00        0.00
  CC-2                 OUTFALL      0.00     0.00     0.00     0  00:00        0.00
  JK-1                 OUTFALL      0.00     0.00     0.00     0  00:00        0.00
  JK-2                 OUTFALL      0.00     0.00     0.00     0  00:00        0.00
  WSC                  OUTFALL      0.28     0.37     1.04     0  03:18        0.37
  CC-storage           STORAGE      1.38     1.66     7.16     0  02:39        1.66
  JK-storage           STORAGE      4.87     5.80     6.60     0  01:46        5.80
  XR-storage           STORAGE      0.27     5.00     3.00     0  00:00        4.91
  
  
  *******************
  Node Inflow Summary
  *******************
  
  -------------------------------------------------------------------------------------------------
                                  Maximum  Maximum                  Lateral       Total        Flow
                                  Lateral    Total  Time of Max      Inflow      Inflow     Balance
                                   Inflow   Inflow   Occurrence      Volume      Volume       Error
  Node                 Type           LPS      LPS  days hr:min    10^6 ltr    10^6 ltr     Percent
  -------------------------------------------------------------------------------------------------
  WS02001211           JUNCTION      7.35   389.13     0  03:33       0.212        11.1       0.354
  WS02001212           JUNCTION      0.00   390.85     0  03:36           0        11.1       0.215
  WS02001213           JUNCTION      0.00   392.60     0  03:35           0        11.1       0.253
  WS02003059           JUNCTION      0.00   395.65     0  03:35           0          11       0.351
  WS02003060           JUNCTION     16.53   816.01     0  02:25       0.476        14.4       0.215
  WS02003066           JUNCTION      0.00   411.82     0  02:24           0        2.94       0.148
  WS02003067           JUNCTION      0.00   411.82     0  02:24           0        2.95       0.308
  WS02003069           JUNCTION      0.32   816.32     0  03:19     0.00922        14.4       0.229
  WS02003072           JUNCTION      0.00   816.31     0  03:20           0        14.3       0.274
  WS02003073           JUNCTION      1.82   818.13     0  03:20      0.0524        14.4       0.303
  WS02004138           JUNCTION      0.00   380.00     0  00:00           0        10.9       0.059
  WS02004139           JUNCTION      0.32   395.52     0  00:00     0.00924        10.9       0.412
  WS02004401           JUNCTION      0.00   411.87     0  02:18           0        3.17       0.630
  WS02004402           JUNCTION      0.00   411.90     0  02:21           0        3.15       0.602
  WS02004403           JUNCTION      0.00   411.84     0  02:19           0        3.14       0.556
  WS02004404           JUNCTION      0.16   411.98     0  02:22     0.00467        3.12       0.424
  WS02004405           JUNCTION      0.04   412.04     0  02:22      0.0011        3.11       0.635
  WS02004406           JUNCTION      0.00   412.06     0  02:22           0        3.09       1.052
  WS02004407           JUNCTION      0.00   411.94     0  02:20           0        3.06       0.220
  WS02004409           JUNCTION      0.00   411.91     0  02:20           0        3.05       0.495
  WS02004410           JUNCTION      0.00   411.88     0  02:20           0        3.04       0.573
  WS02004411           JUNCTION      0.00   411.86     0  02:23           0        3.02       0.597
  WS02004412           JUNCTION      0.00   411.85     0  02:23           0           3       0.655
  WS02004413           JUNCTION      0.00   411.87     0  02:24           0        2.98       0.987
  WS02006109           JUNCTION      1.23   411.66     0  02:01      0.0354        3.28       0.453
  WS02006110           JUNCTION      0.00   411.66     0  02:01           0        3.26       0.462
  WS02006111           JUNCTION      0.00   424.16     0  03:21           0        3.24       0.109
  WS02006112           JUNCTION      0.00   413.56     0  02:18           0        3.24       0.875
  WS02006113           JUNCTION      0.00   411.86     0  02:18           0        3.25       0.217
  WS02006115           JUNCTION      0.00   412.19     0  02:18           0        3.21       0.565
  WS02006116           JUNCTION      0.00   411.97     0  02:18           0        3.19       0.475
  WS02006228           JUNCTION      0.00   410.43     0  02:01           0        3.25       0.249
  WS02006229           JUNCTION      0.00   410.43     0  02:01           0        3.26       0.300
  WS02006230           JUNCTION     10.28   410.39     0  02:01       0.296        3.27       0.289
  WS02006231           JUNCTION      0.00   400.09     0  02:02           0        2.98       0.158
  WS02006232           JUNCTION      0.00   400.09     0  02:02           0        2.99       0.619
  WS02006234           JUNCTION      0.00   400.13     0  01:57           0        2.99      -0.053
  WS02006235           JUNCTION      0.00   400.56     0  01:54           0        3.01       0.426
  WS02006238           JUNCTION      0.00   400.10     0  02:00           0        2.99      -0.277
  WS02006239           JUNCTION      0.00   400.09     0  02:00           0        2.98      -0.127
  WS02006240           JUNCTION      0.00   400.13     0  01:57           0        2.98       0.039
  WS02006242           JUNCTION      0.00   400.10     0  01:57           0        2.98       0.158
  WS02006243           JUNCTION      0.00   400.19     0  01:54           0        2.98       0.023
  WS02006245           JUNCTION      0.00   400.29     0  01:54           0           3       0.553
  WS02006247           JUNCTION      0.00   400.27     0  01:54           0           3       0.046
  WS02006248           JUNCTION      0.00   401.68     0  01:37           0           3       0.113
  WS02006249           JUNCTION      0.00   467.64     0  01:36           0        3.01       0.421
  WS02006251           JUNCTION      0.08   403.54     0  07:36     0.00222        3.01      -0.006
  WS02006252           JUNCTION      0.00   400.00     0  00:00           0        3.01      -0.074
  WS02006256           JUNCTION      0.00   300.00     0  00:00           0      0.0242      -5.503
  WSF200               JUNCTION      0.00   411.82     0  02:25           0        2.94       0.136
  YS02001580           JUNCTION      0.00    97.32     0  01:41           0       0.004       1.745
  YS02001583           JUNCTION      0.00   132.83     0  01:41           0      0.0151      -4.124
  YS02001586           JUNCTION    238.33   245.31     0  01:42       0.665       0.676       0.191
  YS02001590           JUNCTION      0.00   245.04     0  01:42           0       0.663      -0.042
  YS02001593           JUNCTION      0.00   245.19     0  01:41           0       0.664       0.000
  YS02001596           JUNCTION      0.00   246.30     0  01:42           0       0.664      -0.028
  YS02001600           JUNCTION      0.00   247.87     0  01:42           0       0.664      -0.031
  YS02001601           JUNCTION    448.72   698.37     0  01:42       0.929        1.59       0.081
  YS02001602           JUNCTION      0.00   557.39     0  01:41           0        1.51       0.067
  YS02001605           JUNCTION      0.00   557.34     0  01:41           0        1.51       0.086
  YS02001607           JUNCTION      0.00   557.23     0  01:41           0        1.51       0.200
  YS02001610           JUNCTION      0.00   544.40     0  01:41           0        1.51       0.226
  YS02001613           JUNCTION      0.00   553.65     0  01:41           0         1.5       0.179
  YS02001616           JUNCTION      0.00   561.28     0  01:41           0         1.5       0.069
  YS02001619           JUNCTION    399.86   918.03     0  01:41        1.01        2.51       0.022
  YS02001622           JUNCTION      0.00   924.04     0  01:41           0        2.51       0.036
  YS02001625           JUNCTION      0.00   914.26     0  01:41           0        2.51       0.768
  YS02001629           JUNCTION      0.00   915.04     0  01:41           0        2.49       0.054
  YS02001633           JUNCTION    332.78  1229.97     0  01:41       0.691        3.17       0.542
  YS02001641           JUNCTION      0.00  1232.05     0  01:41           0        3.14       0.396
  YS02001644           JUNCTION    288.03  1519.57     0  01:41       0.563        3.69       0.385
  YS02001647           JUNCTION      0.00  1520.34     0  01:41           0        3.67       0.302
  YS02001649           JUNCTION      0.00  1853.58     0  01:43           0        4.23       0.537
  YS02001652           JUNCTION      0.00   340.57     0  01:43           0       0.588       1.201
  YS02001655           JUNCTION      0.15   285.79     0  01:40     0.00443       0.539       0.816
  YS02001658           JUNCTION      0.00   285.65     0  01:40           0       0.522      -0.061
  YS02001661           JUNCTION      0.00   285.74     0  01:40           0       0.523       0.073
  YS02001664           JUNCTION    285.87   285.87     0  01:40       0.523       0.523      -0.013
  YS02001745           JUNCTION    189.06   189.06     0  01:39        0.31        0.31      -0.007
  YS02001748           JUNCTION      0.04   189.43     0  01:39      0.0013       0.311      -0.058
  YS02001751           JUNCTION      0.01   189.63     0  01:39    0.000317       0.409       0.463
  YS02001754           JUNCTION      0.26   402.12     0  02:13     0.00749       0.681       1.426
  YS02001757           JUNCTION      0.00  2470.36     0  01:43           0        5.78       1.305
  YS02001759           JUNCTION    269.09   566.48     0  01:45       0.449        1.13       1.346
  YS02001762           JUNCTION      0.00   359.61     0  01:46           0        0.69       1.897
  YS02001765           JUNCTION      0.00   343.09     0  01:45           0       0.694       2.084
  YS02001767           JUNCTION      0.54   355.32     0  01:45      0.0154       0.707       2.643
  YS02001770           JUNCTION    371.37   371.37     0  01:40       0.673       0.708       2.199
  YS02001774           JUNCTION      0.00    90.40     0  01:42           0      0.0849      19.809
  YS02001779           JUNCTION      0.01    55.30     0  01:44    0.000144       0.042      12.874
  YS02001783           JUNCTION      0.00   903.33     0  01:45           0        2.06       0.339
  YS02001784           JUNCTION      1.06   904.24     0  01:45      0.0305        2.08       0.521
  YS02001786           JUNCTION      0.06   907.00     0  01:46     0.00162        2.07       0.645
  YS02001788           JUNCTION      0.07   896.58     0  01:45     0.00204        2.06       0.660
  YS02001790           JUNCTION      0.15   896.85     0  01:45     0.00446        2.05       0.834
  YS02001791           JUNCTION      0.00   947.50     0  01:45           0        2.04       0.694
  YS02001793           JUNCTION      0.00   907.15     0  01:45           0        2.02       0.802
  YS02001882           JUNCTION      0.00    29.69     0  01:47           0      0.0132       5.122
  YS02001884           JUNCTION      0.00    72.43     0  01:37           0      0.0498       5.186
  YS02001887           JUNCTION    307.75   307.75     0  01:39       0.478       0.513       0.861
  YS02001890           JUNCTION      0.00   286.25     0  01:40           0       0.471       1.085
  YS02001895           JUNCTION      0.00   268.59     0  01:40           0       0.466       0.348
  YS02001898           JUNCTION      0.00   241.33     0  01:40           0       0.464       0.073
  YS02001901           JUNCTION      0.00   234.58     0  01:45           0       0.468       0.686
  YS02001904           JUNCTION      0.00   231.03     0  01:48           0       0.481       0.564
  YS02001907           JUNCTION      0.00   613.69     0  01:46           0        1.47       1.192
  YS02001910           JUNCTION      0.00   412.93     0  01:46           0       0.988       0.717
  YS02001915           JUNCTION    298.46   427.70     0  01:46        0.58        0.99       0.164
  YS02001918           JUNCTION      0.00   185.35     0  01:50           0        0.41       0.076
  YS02001920           JUNCTION      2.87   176.29     0  01:48      0.0827       0.412       0.261
  YS02001923           JUNCTION      0.04   147.68     0  01:43     0.00109       0.329      -0.007
  YS02001926           JUNCTION      0.05   147.73     0  01:43      0.0015       0.328       0.087
  YS02001929           JUNCTION    147.69   147.69     0  01:43       0.327       0.327      -0.009
  YS02006553           JUNCTION      0.00   613.37     0  01:46           0        1.46       0.791
  YS02006556           JUNCTION      0.00   613.58     0  01:46           0        1.47       0.547
  YS02006558           JUNCTION    368.51   905.55     0  01:45       0.659         2.1       0.159
  YS02006561           JUNCTION      0.00   905.37     0  01:45           0        2.06      -0.005
  YS02163301           JUNCTION      0.00   895.84     0  01:42           0        2.49       0.456
  YS02163601           JUNCTION      0.11  1231.59     0  01:41     0.00317        3.16       0.579
  YS02164001           JUNCTION      0.00  1232.30     0  01:41           0        3.14       0.351
  CC-1                 OUTFALL       0.00   683.00     0  00:00           0       0.208       0.000
  CC-2                 OUTFALL       0.00   683.00     0  00:00           0       0.208       0.000
  JK-1                 OUTFALL       0.00  1000.00     0  00:00           0      0.0791       0.000
  JK-2                 OUTFALL       0.00  1000.00     0  00:00           0      0.0791       0.000
  WSC                  OUTFALL       0.00   818.13     0  03:18           0        14.3       0.000
  CC-storage           STORAGE       0.00  2357.64     0  01:45           0        7.66       0.332
  JK-storage           STORAGE       0.00  1000.40     0  01:44           0        2.16       0.745
  XR-storage           STORAGE     200.00   200.00     0  00:00        5.76        6.36     -41.886
  
  
  **********************
  Node Surcharge Summary
  **********************
  
  Surcharging occurs when water rises above the top of the highest conduit.
  ---------------------------------------------------------------------
                                               Max. Height   Min. Depth
                                   Hours       Above Crown    Below Rim
  Node                 Type      Surcharged         Meters       Meters
  ---------------------------------------------------------------------
  WS02006109           JUNCTION        1.52          0.014        1.806
  WS02006228           JUNCTION        1.51          0.013        2.187
  WS02006229           JUNCTION        1.53          0.035        2.415
  WS02006232           JUNCTION        1.58          0.050        1.430
  WS02006235           JUNCTION        1.53          0.045        1.245
  WS02006238           JUNCTION        1.55          0.072        1.358
  WS02006239           JUNCTION        1.53          0.059        1.231
  WS02006240           JUNCTION        1.54          0.074        1.316
  WS02006242           JUNCTION        1.61          0.164        0.656
  WS02006243           JUNCTION        1.55          0.127        0.643
  WS02006245           JUNCTION        1.55          0.135        0.715
  WS02006247           JUNCTION        1.57          0.173        0.587
  WS02006248           JUNCTION        1.54          0.131        0.249
  WS02006249           JUNCTION        1.56          0.191        0.199
  WS02006252           JUNCTION        2.01          1.100        0.000
  WS02006256           JUNCTION        3.23          2.050        0.000
  YS02001580           JUNCTION        0.01          0.406        0.044
  YS02001583           JUNCTION        0.01          0.410        0.090
  YS02001586           JUNCTION        0.26          0.510        0.000
  YS02001590           JUNCTION        0.33          0.750        0.000
  YS02001593           JUNCTION        0.33          0.719        0.121
  YS02001596           JUNCTION        0.43          0.956        0.114
  YS02001600           JUNCTION        0.53          1.190        0.000
  YS02001601           JUNCTION        0.84          1.440        0.000
  YS02001602           JUNCTION        0.73          1.270        0.000
  YS02001605           JUNCTION        0.69          1.180        0.000
  YS02001607           JUNCTION        0.26          0.665        0.015
  YS02001610           JUNCTION        0.29          0.680        0.000
  YS02001613           JUNCTION        0.25          0.692        0.008
  YS02001616           JUNCTION        0.21          0.610        0.000
  YS02001619           JUNCTION        0.19          0.596        0.014
  YS02001622           JUNCTION        0.18          0.541        0.079
  YS02001625           JUNCTION        0.37          0.744        0.036
  YS02001629           JUNCTION        0.05          0.470        0.000
  YS02001633           JUNCTION        0.38          0.738        0.322
  YS02001641           JUNCTION        0.29          0.363        0.737
  YS02001644           JUNCTION        0.23          0.206        0.714
  YS02001783           JUNCTION        0.27          0.592        1.008
  YS02001784           JUNCTION        0.24          0.883        0.607
  YS02001786           JUNCTION        0.23          1.059        0.371
  YS02001788           JUNCTION        0.23          1.079        0.401
  YS02001790           JUNCTION        6.24          1.157        0.000
  YS02001791           JUNCTION        6.24          1.920        0.000
  YS02001793           JUNCTION        6.25          1.458        1.142
  YS02001884           JUNCTION        0.01          0.023        0.847
  YS02001887           JUNCTION        0.13          0.100        0.850
  YS02001890           JUNCTION        0.16          0.110        0.650
  YS02001901           JUNCTION        0.07          0.069        0.801
  YS02001904           JUNCTION        0.02          0.064        0.786
  YS02001907           JUNCTION        0.36          0.372        0.578
  YS02001910           JUNCTION        0.20          0.155        0.945
  YS02006553           JUNCTION        0.37          0.385        0.805
  YS02006556           JUNCTION        0.29          0.315        1.035
  YS02006558           JUNCTION        0.28          0.295        1.105
  YS02163301           JUNCTION        0.37          0.793        0.237
  YS02163601           JUNCTION        0.41          0.612        0.468
  YS02164001           JUNCTION        0.30          0.451        0.649
  
  
  *********************
  Node Flooding Summary
  *********************
  
  Flooding refers to all water that overflows a node, whether it ponds or not.
  --------------------------------------------------------------------------
                                                             Total   Maximum
                                 Maximum   Time of Max       Flood    Ponded
                        Hours       Rate    Occurrence      Volume     Depth
  Node                 Flooded       LPS   days hr:min    10^6 ltr    Meters
  --------------------------------------------------------------------------
  WS02006252              0.01    245.63      0  00:00       0.000     0.000
  WS02006256              0.02    293.19      0  00:00       0.005     0.000
  YS02001586              0.01     55.86      0  01:41       0.001     0.000
  YS02001590              0.01      6.32      0  01:41       0.000     0.000
  YS02001600              0.01      1.62      0  01:41       0.000     0.000
  YS02001601              0.18    256.93      0  01:41       0.081     0.000
  YS02001602              0.01     17.70      0  01:41       0.000     0.000
  YS02001605              0.01      2.22      0  01:41       0.000     0.000
  YS02001610              0.01     28.12      0  01:41       0.000     0.000
  YS02001616              0.01      9.95      0  01:41       0.000     0.000
  YS02001629              0.01     84.21      0  01:41       0.000     0.000
  YS02001790              0.01    143.25      0  01:45       0.000     0.000
  YS02001791              0.01    227.32      0  01:45       0.000     0.000
  JK-storage              6.23    786.04      0  01:47       1.667     0.000
  
  
  **********************
  Storage Volume Summary
  **********************
  
  ------------------------------------------------------------------------------------------------
                         Average    Avg   Evap  Exfil     Maximum    Max    Time of Max    Maximum
                          Volume   Pcnt   Pcnt   Pcnt      Volume   Pcnt     Occurrence    Outflow
  Storage Unit           1000 m³   Full   Loss   Loss     1000 m³   Full    days hr:min        LPS
  ------------------------------------------------------------------------------------------------
  CC-storage               3.837   59.9    0.0    0.0       4.625   72.1       0  02:39    1783.53
  JK-storage               0.245   84.0    0.0    0.0       0.291  100.0       0  01:46    2300.00
  XR-storage               0.033    2.3    0.0    0.0       0.600   41.7       0  00:00     380.00
  
  
  ***********************
  Outfall Loading Summary
  ***********************
  
  -----------------------------------------------------------
                         Flow       Avg       Max       Total
                         Freq      Flow      Flow      Volume
  Outfall Node           Pcnt       LPS       LPS    10^6 ltr
  -----------------------------------------------------------
  CC-1                   1.20    683.00    683.00       0.208
  CC-2                   1.20    683.00    683.00       0.208
  JK-1                   1.12    347.46   1000.00       0.079
  JK-2                   1.12    347.46   1000.00       0.079
  WSC                   99.93    525.43    818.13      14.311
  -----------------------------------------------------------
  System                20.92   2586.35   3366.35      14.886
  
  
  ********************
  Link Flow Summary
  ********************
  
  -----------------------------------------------------------------------------
                                 Maximum  Time of Max   Maximum    Max/    Max/
                                  |Flow|   Occurrence   |Veloc|    Full    Full
  Link                 Type          LPS  days hr:min     m/sec    Flow   Depth
  -----------------------------------------------------------------------------
  1                    CONDUIT    818.13     0  03:18      3.15    0.28    0.37
  WS02001211WS02001212 CONDUIT    390.85     0  03:36      0.78    0.30    0.64
  WS02001212WS02001213 CONDUIT    392.60     0  03:35      1.32    0.61    0.45
  WS02001213WS02003059 CONDUIT    395.65     0  03:35      0.85    0.65    0.75
  WS02003059WS02003060 CONDUIT    399.94     0  03:35      0.95    0.26    0.63
  WS02003060WS02003069 CONDUIT    816.00     0  03:19      1.80    0.32    0.42
  WS02003066WSF200     CONDUIT    411.82     0  02:25      2.69    0.07    0.19
  WS02003067WS02003066 CONDUIT    411.82     0  02:24      1.04    0.13    0.38
  WS02003069WS02003072 CONDUIT    816.31     0  03:20      1.55    0.39    0.47
  WS02003072WS02003073 CONDUIT    816.31     0  03:20      1.64    1.76    0.45
  WS02004138WS02004139 CONDUIT    395.20     0  00:00      3.65    0.08    0.43
  WS02004139WS02001211 CONDUIT    381.78     0  03:33      0.91    0.48    0.59
  WS02004401WS02004402 CONDUIT    411.90     0  02:21      0.99    0.49    0.77
  WS02004402WS02004403 CONDUIT    411.84     0  02:19      0.99    0.59    0.79
  WS02004403WS02004404 CONDUIT    411.82     0  02:22      0.93    0.30    0.84
  WS02004404WS02004405 CONDUIT    412.00     0  02:22      1.10    4.04    0.88
  WS02004405WS02004406 CONDUIT    412.06     0  02:22      1.03    0.81    0.88
  WS02004406WS02004407 CONDUIT    411.94     0  02:20      0.89    0.18    0.57
  WS02004407WS02004409 CONDUIT    411.91     0  02:20      1.42    0.15    0.42
  WS02004409WS02004410 CONDUIT    411.88     0  02:20      0.92    0.53    0.58
  WS02004410WS02004411 CONDUIT    411.86     0  02:23      0.86    0.56    0.60
  WS02004411WS02004412 CONDUIT    411.85     0  02:23      0.81    0.59    0.61
  WS02004412WS02004413 CONDUIT    411.87     0  02:24      0.70    0.28    0.70
  WS02004413WS02003067 CONDUIT    411.82     0  02:24      0.96    0.18    0.53
  WS02006109WS02006110 CONDUIT    411.66     0  02:01      0.84    0.79    0.94
  WS02006110WS02006113 CONDUIT    411.86     0  02:18      1.03    0.37    0.75
  WS02006111WS02006112 CONDUIT    413.56     0  02:18      1.83    0.20    0.65
  WS02006112WS02006115 CONDUIT    412.19     0  02:18      0.71    0.24    0.78
  WS02006113WS02006111 CONDUIT    424.16     0  03:21      2.25    0.51    0.40
  WS02006115WS02006116 CONDUIT    411.97     0  02:18      0.98    0.53    0.66
  WS02006116WS02004401 CONDUIT    411.87     0  02:18      1.00    0.57    0.74
  WS02006228WS02006109 CONDUIT    410.43     0  02:01      1.06    1.79    1.00
  WS02006229WS02006228 CONDUIT    410.43     0  02:01      1.13    1.36    1.00
  WS02006230WS02006229 CONDUIT    410.43     0  02:01      1.22    9.13    1.00
  WS02006231WS02006230 CONDUIT    400.12     0  02:01      1.37    6.07    0.77
  WS02006232WS02006231 CONDUIT    400.09     0  02:02      1.08    0.84    0.92
  WS02006234WS02006232 CONDUIT    400.09     0  02:02      1.40    0.81    1.00
  WS02006235WS02006234 CONDUIT    400.13     0  01:57      1.29    4.22    0.99
  WS02006238WS02006235 CONDUIT    400.56     0  01:54      1.50    0.89    1.00
  WS02006239WS02006238 CONDUIT    400.10     0  02:00      1.22    1.28    1.00
  WS02006240WS02006239 CONDUIT    400.09     0  02:00      1.32    1.26    1.00
  WS02006242WS02006240 CONDUIT    400.13     0  01:57      1.19    1.59    1.00
  WS02006243WS02006242 CONDUIT    400.10     0  01:57      1.42    0.85    1.00
  WS02006245WS02006243 CONDUIT    400.19     0  01:54      1.45    1.18    1.00
  WS02006247WS02006245 CONDUIT    400.29     0  01:54      1.43    3.17    1.00
  WS02006248WS02006247 CONDUIT    400.27     0  01:54      1.43    0.87    1.00
  WS02006249WS02006248 CONDUIT    401.68     0  01:37      1.40    2.20    1.00
  WS02006251WS02006249 CONDUIT    467.64     0  01:36      1.99    1.35    1.00
  WS02006252WS02006251 CONDUIT    403.46     0  07:36     24.55    1.48    1.00
  WS02006256WS02006235 CONDUIT    288.91     0  00:00      4.23    3.06    1.00
  WSF200WS02003060     CONDUIT    411.82     0  02:25      1.43    0.09    0.30
  YS02001580YS02001583 CONDUIT     97.32     0  01:41      0.65    0.38    1.00
  YS02001583YS02001586 CONDUIT    118.38     0  01:41      0.53    0.18    1.00
  YS02001586YS02001590 CONDUIT    245.04     0  01:42      1.32    0.43    1.00
  YS02001590YS02001593 CONDUIT    245.19     0  01:41      1.03    1.54    1.00
  YS02001593YS02001596 CONDUIT    246.30     0  01:42      1.69    0.39    1.00
  YS02001596YS02001600 CONDUIT    247.87     0  01:42      1.15    0.48    1.00
  YS02001600YS02001601 CONDUIT    250.47     0  01:42      0.89    0.43    1.00
  YS02001601YS02001602 CONDUIT    557.39     0  01:41      1.97    2.01    1.00
  YS02001602YS02001605 CONDUIT    557.34     0  01:41      1.97   11.79    1.00
  YS02001605YS02001607 CONDUIT    557.23     0  01:41      1.97    3.06    1.00
  YS02001607YS02001610 CONDUIT    544.40     0  01:41      0.75    0.52    1.00
  YS02001610YS02001613 CONDUIT    553.65     0  01:41      0.71    0.64    1.00
  YS02001613YS02001616 CONDUIT    561.28     0  01:41      0.72    0.48    1.00
  YS02001616YS02001619 CONDUIT    530.30     0  01:41      0.73    0.92    1.00
  YS02001619YS02001622 CONDUIT    924.04     0  01:41      1.43    1.36    1.00
  YS02001622YS02001625 CONDUIT    914.26     0  01:41      1.16    0.49    1.00
  YS02001625YS02001629 CONDUIT    915.04     0  01:41      1.17    0.44    1.00
  YS02001629YS02163301 CONDUIT    895.84     0  01:42      1.14    1.10    1.00
  YS02001633YS02163601 CONDUIT   1231.48     0  01:41      1.57    1.29    1.00
  YS02001641YS02001644 CONDUIT   1233.07     0  01:41      1.57    3.99    1.00
  YS02001644YS02001647 CONDUIT   1520.34     0  01:41      2.09    0.89    0.89
  YS02001647YS02001649 CONDUIT   1549.30     0  01:42      2.33    0.82    0.81
  YS02001649YS02001757 CONDUIT   1842.10     0  01:43      2.57    1.12    0.88
  YS02001652YS02001649 CONDUIT    368.44     0  01:43      0.97    0.18    0.77
  YS02001655YS02001652 CONDUIT    340.57     0  01:43      1.78    0.17    0.52
  YS02001658YS02001655 CONDUIT    285.64     0  01:40      1.93    0.12    0.33
  YS02001661YS02001658 CONDUIT    285.65     0  01:40      2.08    0.11    0.23
  YS02001664YS02001661 CONDUIT    285.74     0  01:40      1.87    0.09    0.25
  YS02001745YS02001748 CONDUIT    189.38     0  01:39      1.93    0.07    0.18
  YS02001748YS02001751 CONDUIT    189.62     0  01:39      1.62    0.10    0.21
  YS02001751YS02001754 CONDUIT    202.27     0  01:47      1.64    0.10    0.43
  YS02001754YS02001757 CONDUIT    306.43     0  02:12      0.74    0.12    0.77
  YS02001757CaochengTiaoxuchi CONDUIT   2357.64     0  01:45      3.36    1.02    0.98
  YS02001759YS02001757 CONDUIT    546.04     0  01:46      1.21    0.39    0.90
  YS02001762YS02001759 CONDUIT    358.82     0  01:45      0.61    0.41    0.80
  YS02001765YS02001762 CONDUIT    359.61     0  01:46      0.79    0.34    0.79
  YS02001767YS02001765 CONDUIT    343.09     0  01:45      0.93    0.43    0.72
  YS02001770YS02001767 CONDUIT    354.79     0  01:45      0.93    1.41    0.70
  YS02001774YS02001770 CONDUIT     90.40     0  01:42      0.21    0.06    0.71
  YS02001779YS02001774 CONDUIT     55.29     0  01:44      0.11    0.03    0.63
  YS02001783YS02001784 CONDUIT    903.18     0  01:45      1.80    1.25    1.00
  YS02001784YS02001785 CONDUIT    906.95     0  01:46      1.89    2.11    1.00
  YS02001786YS02001788 CONDUIT    896.51     0  01:45      2.31    1.73    1.00
  YS02001788YS02001790 CONDUIT    896.69     0  01:45      2.42    0.66    1.00
  YS02001790YS02001791 CONDUIT    947.50     0  01:45      3.05    1.03    1.00
  YS02001791YS02001793 CONDUIT    907.15     0  01:45      6.01    0.39    1.00
  YS02001793JiankangQianchi CONDUIT   1000.40     0  01:44      1.83    0.08    1.00
  YS02001882YS02001884 CONDUIT     34.76     0  01:48      0.14    0.04    0.99
  YS02001884YS02001887 CONDUIT     72.43     0  01:37      0.15    0.10    1.00
  YS02001887YS02001890 CONDUIT    286.25     0  01:40      0.39    0.49    1.00
  YS02001890YS02001895 CONDUIT    268.59     0  01:40      0.40    0.13    0.95
  YS02001895YS02001898 CONDUIT    241.33     0  01:40      0.49    0.42    0.90
  YS02001898YS02001901 CONDUIT    234.58     0  01:45      0.35    0.15    0.96
  YS02001901YS02001904 CONDUIT    231.03     0  01:48      0.38    0.36    1.00
  YS02001904YS02001907 CONDUIT    221.59     0  01:45      0.31    0.08    1.00
  YS02001907YS02006553 CONDUIT    613.37     0  01:46      0.68    0.72    1.00
  YS02001910YS02001907 CONDUIT    412.36     0  01:46      0.53    0.23    1.00
  YS02001915YS02001910 CONDUIT    412.93     0  01:46      0.54    0.21    0.98
  YS02001918YS02001915 CONDUIT    200.33     0  01:50      0.44    0.11    0.77
  YS02001920YS02001918 CONDUIT    185.35     0  01:50      0.73    0.18    0.62
  YS02001923YS02001920 CONDUIT    173.42     0  01:48      0.84    0.08    0.53
  YS02001926YS02001923 CONDUIT    147.64     0  01:43      0.89    0.21    0.26
  YS02001929YS02001926 CONDUIT    147.68     0  01:43      0.98    0.07    0.25
  YS02006553YS02006556 CONDUIT    613.58     0  01:46      0.78    0.52    1.00
  YS02006556YS02006558 CONDUIT    614.01     0  01:46      0.78    0.48    1.00
  YS02006558YS02006561 CONDUIT    905.37     0  01:45      3.50    2.00    1.00
  YS02006561YS02001783 CONDUIT    903.33     0  01:45      2.17    0.47    0.94
  YS02163301YS02001633 CONDUIT    897.32     0  01:41      1.14    0.84    1.00
  YS02163601YS02164001 CONDUIT   1232.30     0  01:41      1.57    1.09    1.00
  YS02164001YS02001641 CONDUIT   1232.05     0  01:41      1.57    1.68    1.00
  CC-R1                PUMP       683.00     0  00:00              1.00
  CC-R2                PUMP       683.00     0  00:00              1.00
  CC-S1                PUMP       200.00     0  00:00              1.00
  CC-S2                PUMP       200.00     0  00:00              1.00
  JK-R1                PUMP      1000.00     0  00:00              1.00
  JK-R2                PUMP      1000.00     0  00:00              1.00
  JK-S                 PUMP       300.00     0  00:00              1.00
  XR-1                 PUMP        95.00     0  00:00              1.00
  XR-2                 PUMP        95.00     0  00:00              1.00
  XR-3                 PUMP        95.00     0  00:00              1.00
  XR-4                 PUMP        95.00     0  00:00              1.00
  
  
  ***************************
  Flow Classification Summary
  ***************************
  
  -------------------------------------------------------------------------------------
                      Adjusted    ---------- Fraction of Time in Flow Class ---------- 
                       /Actual         Up    Down  Sub   Sup   Up    Down  Norm  Inlet 
  Conduit               Length    Dry  Dry   Dry   Crit  Crit  Crit  Crit  Ltd   Ctrl  
  -------------------------------------------------------------------------------------
  1                       1.00   0.00  0.00  0.00  0.00  1.00  0.00  0.00  0.18  0.00
  WS02001211WS02001212    1.00   0.00  0.00  0.00  1.00  0.00  0.00  0.00  0.00  0.00
  WS02001212WS02001213    1.00   0.00  0.00  0.00  0.35  0.00  0.64  0.00  0.00  0.00
  WS02001213WS02003059    1.00   0.00  0.00  0.00  0.99  0.00  0.00  0.00  0.00  0.00
  WS02003059WS02003060    1.00   0.00  0.00  0.00  1.00  0.00  0.00  0.00  0.00  0.00
  WS02003060WS02003069    1.00   0.00  0.00  0.00  0.99  0.01  0.00  0.00  0.00  0.00
  WS02003066WSF200        1.00   0.02  0.10  0.00  0.00  0.88  0.00  0.00  0.86  0.00
  WS02003067WS02003066    1.00   0.10  0.02  0.00  0.89  0.00  0.00  0.00  0.00  0.00
  WS02003069WS02003072    1.00   0.00  0.00  0.00  0.99  0.01  0.00  0.00  0.00  0.00
  WS02003072WS02003073    1.00   0.00  0.00  0.00  0.00  0.00  0.00  1.00  0.00  0.00
  WS02004138WS02004139    1.00   0.00  0.00  0.00  0.99  0.01  0.00  0.00  1.00  0.00
  WS02004139WS02001211    1.00   0.00  0.00  0.00  1.00  0.00  0.00  0.00  0.00  0.00
  WS02004401WS02004402    1.00   0.02  0.00  0.00  0.98  0.00  0.00  0.00  0.00  0.00
  WS02004402WS02004403    1.00   0.02  0.00  0.00  0.98  0.00  0.00  0.00  0.00  0.00
  WS02004403WS02004404    1.00   0.00  0.03  0.00  0.97  0.00  0.00  0.00  0.00  0.00
  WS02004404WS02004405    1.00   0.00  0.00  0.00  1.00  0.00  0.00  0.00  0.00  0.00
  WS02004405WS02004406    1.00   0.00  0.00  0.00  1.00  0.00  0.00  0.00  0.00  0.00
  WS02004406WS02004407    1.00   0.00  0.05  0.00  0.95  0.00  0.00  0.00  0.00  0.00
  WS02004407WS02004409    1.00   0.05  0.00  0.00  0.94  0.01  0.00  0.00  0.94  0.00
  WS02004409WS02004410    1.00   0.05  0.00  0.00  0.95  0.00  0.00  0.00  0.02  0.00
  WS02004410WS02004411    1.00   0.05  0.00  0.00  0.95  0.00  0.00  0.00  0.00  0.00
  WS02004411WS02004412    1.00   0.05  0.00  0.00  0.95  0.00  0.00  0.00  0.00  0.00
  WS02004412WS02004413    1.00   0.05  0.00  0.00  0.94  0.00  0.00  0.00  0.01  0.00
  WS02004413WS02003067    1.00   0.06  0.04  0.00  0.00  0.00  0.90  0.00  0.00  0.00
  WS02006109WS02006110    1.00   0.00  0.01  0.00  0.98  0.00  0.01  0.00  0.00  0.00
  WS02006110WS02006113    1.00   0.01  0.01  0.00  0.98  0.00  0.00  0.00  0.00  0.00
  WS02006111WS02006112    1.00   0.02  0.00  0.00  0.98  0.00  0.00  0.00  0.98  0.00
  WS02006112WS02006115    1.00   0.02  0.00  0.00  0.97  0.00  0.00  0.00  0.00  0.00
  WS02006113WS02006111    1.00   0.02  0.00  0.00  0.00  0.98  0.00  0.00  0.11  0.00
  WS02006115WS02006116    1.00   0.02  0.00  0.00  0.97  0.00  0.00  0.01  0.00  0.00
  WS02006116WS02004401    1.00   0.02  0.00  0.00  0.98  0.00  0.00  0.00  0.00  0.00
  WS02006228WS02006109    1.00   0.00  0.00  0.00  1.00  0.00  0.00  0.00  0.00  0.00
  WS02006229WS02006228    1.00   0.00  0.00  0.00  0.99  0.00  0.00  0.01  0.00  0.00
  WS02006230WS02006229    1.00   0.00  0.00  0.00  0.99  0.00  0.00  0.01  0.00  0.00
  WS02006231WS02006230    1.00   0.00  0.00  0.00  0.21  0.00  0.79  0.00  0.00  0.00
  WS02006232WS02006231    1.00   0.00  0.00  0.00  0.99  0.00  0.01  0.00  0.00  0.00
  WS02006234WS02006232    1.00   0.00  0.00  0.00  1.00  0.00  0.00  0.00  0.50  0.00
  WS02006235WS02006234    1.00   0.00  0.00  0.00  0.46  0.00  0.54  0.00  0.00  0.00
  WS02006238WS02006235    1.00   0.00  0.00  0.00  1.00  0.00  0.00  0.00  0.00  0.00
  WS02006239WS02006238    1.00   0.00  0.00  0.00  1.00  0.00  0.00  0.00  0.59  0.00
  WS02006240WS02006239    1.00   0.00  0.00  0.00  0.37  0.00  0.00  0.63  0.01  0.00
  WS02006242WS02006240    1.00   0.00  0.00  0.00  0.99  0.00  0.01  0.00  0.00  0.00
  WS02006243WS02006242    1.00   0.00  0.00  0.00  0.99  0.00  0.00  0.01  0.68  0.00
  WS02006245WS02006243    1.00   0.00  0.00  0.00  0.42  0.00  0.00  0.58  0.00  0.00
  WS02006247WS02006245    1.00   0.00  0.00  0.00  0.99  0.00  0.00  0.01  0.00  0.00
  WS02006248WS02006247    1.00   0.00  0.00  0.00  0.99  0.00  0.00  0.01  0.14  0.00
  WS02006249WS02006248    1.00   0.00  0.00  0.00  0.32  0.00  0.68  0.00  0.00  0.00
  WS02006251WS02006249    1.00   0.00  0.00  0.00  1.00  0.00  0.00  0.00  0.69  0.00
  WS02006252WS02006251    1.00   0.00  0.71  0.00  0.00  0.00  0.29  0.00  0.00  0.00
  WS02006256WS02006235    1.00   0.00  0.00  0.00  1.00  0.00  0.00  0.00  0.00  0.00
  WSF200WS02003060        1.00   0.00  0.02  0.00  0.98  0.00  0.00  0.00  0.70  0.00
  YS02001580YS02001583    1.00   0.21  0.66  0.00  0.13  0.00  0.00  0.00  0.75  0.00
  YS02001583YS02001586    1.00   0.52  0.29  0.00  0.19  0.00  0.00  0.00  0.75  0.00
  YS02001586YS02001590    1.00   0.13  0.00  0.00  0.33  0.04  0.00  0.50  0.32  0.00
  YS02001590YS02001593    1.00   0.13  0.01  0.00  0.05  0.00  0.81  0.00  0.00  0.00
  YS02001593YS02001596    1.00   0.14  0.00  0.00  0.07  0.01  0.00  0.79  0.02  0.00
  YS02001596YS02001600    1.00   0.14  0.00  0.00  0.13  0.02  0.00  0.71  0.06  0.00
  YS02001600YS02001601    1.00   0.13  0.01  0.00  0.86  0.00  0.00  0.00  0.65  0.00
  YS02001601YS02001602    1.00   0.13  0.01  0.00  0.86  0.00  0.00  0.00  0.00  0.00
  YS02001602YS02001605    1.00   0.14  0.00  0.00  0.86  0.00  0.00  0.00  0.00  0.00
  YS02001605YS02001607    1.00   0.14  0.00  0.00  0.86  0.00  0.00  0.00  0.00  0.00
  YS02001607YS02001610    1.00   0.13  0.01  0.00  0.86  0.00  0.00  0.00  0.02  0.00
  YS02001610YS02001613    1.00   0.13  0.00  0.00  0.87  0.00  0.00  0.00  0.01  0.00
  YS02001613YS02001616    1.00   0.13  0.00  0.00  0.87  0.00  0.00  0.00  0.01  0.00
  YS02001616YS02001619    1.00   0.13  0.00  0.00  0.87  0.00  0.00  0.00  0.00  0.00
  YS02001619YS02001622    1.00   0.13  0.00  0.00  0.87  0.00  0.00  0.00  0.00  0.00
  YS02001622YS02001625    1.00   0.13  0.00  0.00  0.87  0.00  0.00  0.00  0.06  0.00
  YS02001625YS02001629    1.00   0.13  0.06  0.00  0.78  0.00  0.03  0.00  0.00  0.00
  YS02001629YS02163301    1.00   0.17  0.01  0.00  0.82  0.00  0.00  0.00  0.00  0.00
  YS02001633YS02163601    1.00   0.00  0.01  0.00  0.99  0.00  0.00  0.00  0.16  0.00
  YS02001641YS02001644    1.00   0.00  0.01  0.00  0.99  0.00  0.00  0.00  0.00  0.00
  YS02001644YS02001647    1.00   0.00  0.18  0.00  0.82  0.00  0.00  0.00  0.00  0.00
  YS02001647YS02001649    1.00   0.00  0.18  0.00  0.82  0.00  0.00  0.00  0.01  0.00
  YS02001649YS02001757    1.00   0.00  0.00  0.00  1.00  0.00  0.00  0.00  0.19  0.00
  YS02001652YS02001649    1.00   0.00  0.00  0.00  0.96  0.04  0.00  0.00  0.15  0.00
  YS02001655YS02001652    1.00   0.00  0.00  0.00  0.79  0.00  0.00  0.21  0.00  0.00
  YS02001658YS02001655    1.00   0.00  0.15  0.00  0.79  0.06  0.00  0.00  0.80  0.00
  YS02001661YS02001658    1.00   0.15  0.00  0.00  0.46  0.39  0.00  0.00  0.79  0.00
  YS02001664YS02001661    1.00   0.13  0.00  0.00  0.79  0.09  0.00  0.00  0.87  0.00
  YS02001745YS02001748    1.00   0.00  0.00  0.00  0.00  0.00  0.00  1.00  0.00  0.00
  YS02001748YS02001751    1.00   0.00  0.00  0.00  0.92  0.08  0.00  0.00  0.44  0.00
  YS02001751YS02001754    1.00   0.00  0.00  0.00  0.79  0.00  0.00  0.21  0.01  0.00
  YS02001754YS02001757    1.00   0.00  0.00  0.00  1.00  0.00  0.00  0.00  0.21  0.00
  YS02001757CaochengTiaoxuchi    1.00   0.00  0.00  0.00  0.99  0.01  0.00  0.00  0.20  0.00
  YS02001759YS02001757    1.00   0.00  0.00  0.00  1.00  0.00  0.00  0.00  0.06  0.00
  YS02001762YS02001759    1.00   0.00  0.00  0.00  1.00  0.00  0.00  0.00  0.04  0.00
  YS02001765YS02001762    1.00   0.00  0.00  0.00  1.00  0.00  0.00  0.00  0.17  0.00
  YS02001767YS02001765    1.00   0.00  0.00  0.00  1.00  0.00  0.00  0.00  0.00  0.00
  YS02001770YS02001767    1.00   0.00  0.00  0.00  1.00  0.00  0.00  0.00  0.00  0.00
  YS02001774YS02001770    1.00   0.00  0.14  0.00  0.86  0.00  0.00  0.00  0.04  0.00
  YS02001779YS02001774    1.00   0.00  0.00  0.00  1.00  0.00  0.00  0.00  0.18  0.00
  YS02001783YS02001784    1.00   0.00  0.19  0.00  0.81  0.00  0.00  0.00  0.00  0.00
  YS02001784YS02001785    1.00   0.00  0.00  0.00  1.00  0.00  0.00  0.00  0.18  0.00
  YS02001786YS02001788    1.00   0.00  0.00  0.00  0.98  0.02  0.00  0.00  0.00  0.00
  YS02001788YS02001790    1.00   0.00  0.00  0.00  0.97  0.03  0.00  0.00  0.20  0.00
  YS02001790YS02001791    1.00   0.00  0.00  0.00  0.79  0.21  0.00  0.00  0.01  0.00
  YS02001791YS02001793    1.00   0.00  0.00  0.00  0.78  0.22  0.00  0.00  0.00  0.00
  YS02001793JiankangQianchi    1.00   0.00  0.00  0.00  0.93  0.07  0.00  0.00  0.19  0.00
  YS02001882YS02001884    1.00   0.16  0.01  0.00  0.83  0.00  0.00  0.00  0.00  0.00
  YS02001884YS02001887    1.00   0.06  0.05  0.00  0.89  0.00  0.00  0.00  0.00  0.00
  YS02001887YS02001890    1.00   0.00  0.00  0.00  0.97  0.00  0.03  0.00  0.00  0.00
  YS02001890YS02001895    1.00   0.00  0.17  0.00  0.82  0.00  0.00  0.00  0.00  0.00
  YS02001895YS02001898    1.00   0.18  0.00  0.00  0.81  0.00  0.01  0.00  0.00  0.00
  YS02001898YS02001901    1.00   0.18  0.00  0.00  0.82  0.00  0.00  0.00  0.01  0.00
  YS02001901YS02001904    1.00   0.18  0.00  0.00  0.82  0.00  0.00  0.00  0.00  0.00
  YS02001904YS02001907    1.00   0.00  0.17  0.00  0.82  0.00  0.00  0.00  0.00  0.00
  YS02001907YS02006553    1.00   0.00  0.02  0.00  0.98  0.00  0.00  0.00  0.00  0.00
  YS02001910YS02001907    1.00   0.00  0.00  0.00  0.97  0.00  0.00  0.03  0.12  0.00
  YS02001915YS02001910    1.00   0.00  0.00  0.00  0.96  0.03  0.00  0.00  0.17  0.00
  YS02001918YS02001915    1.00   0.00  0.01  0.00  0.98  0.02  0.00  0.00  0.80  0.00
  YS02001920YS02001918    1.00   0.00  0.01  0.00  0.99  0.00  0.00  0.00  0.00  0.00
  YS02001923YS02001920    1.00   0.00  0.00  0.00  1.00  0.00  0.00  0.00  0.97  0.00
  YS02001926YS02001923    1.00   0.00  0.07  0.00  0.00  0.00  0.92  0.00  0.00  0.00
  YS02001929YS02001926    1.00   0.00  0.13  0.00  0.87  0.00  0.00  0.00  0.87  0.00
  YS02006553YS02006556    1.00   0.01  0.00  0.00  0.99  0.00  0.00  0.00  0.03  0.00
  YS02006556YS02006558    1.00   0.00  0.00  0.00  1.00  0.00  0.00  0.00  0.00  0.00
  YS02006558YS02006561    1.00   0.19  0.00  0.00  0.02  0.79  0.00  0.00  0.20  0.00
  YS02006561YS02001783    1.00   0.19  0.00  0.00  0.79  0.02  0.00  0.00  0.76  0.00
  YS02163301YS02001633    1.00   0.00  0.17  0.00  0.83  0.00  0.00  0.00  0.00  0.00
  YS02163601YS02164001    1.00   0.00  0.08  0.00  0.92  0.00  0.00  0.00  0.00  0.00
  YS02164001YS02001641    1.00   0.01  0.07  0.00  0.92  0.00  0.00  0.00  0.06  0.00
  
  
  *************************
  Conduit Surcharge Summary
  *************************
  
  ----------------------------------------------------------------------------
                                                           Hours        Hours 
                         --------- Hours Full --------   Above Full   Capacity
  Conduit                Both Ends  Upstream  Dnstream   Normal Flow   Limited
  ----------------------------------------------------------------------------
  WS02003072WS02003073        0.01      0.01      0.01      2.18         0.01
  WS02004404WS02004405        0.01      0.01      0.01      2.14         0.01
  WS02006109WS02006110        0.01      0.01      1.58      0.01         0.01
  WS02006110WS02006113        0.01      0.01      1.55      0.01         0.01
  WS02006111WS02006112        0.01      0.01      1.68      0.01         0.01
  WS02006228WS02006109        1.52      1.57      1.52      1.96         1.52
  WS02006229WS02006228        1.51      1.53      1.51      1.75         1.51
  WS02006230WS02006229        1.64      1.71      1.64      2.60         1.64
  WS02006231WS02006230        0.01      0.01      0.01      2.42         0.01
  WS02006232WS02006231        0.01      0.01      1.58      0.01         0.01
  WS02006234WS02006232        1.48      1.48      1.58      0.01         0.01
  WS02006235WS02006234        0.01      0.01      1.53      2.31         0.01
  WS02006238WS02006235        1.54      1.54      1.59      0.01         0.01
  WS02006239WS02006238        1.55      1.58      1.55      1.81         1.55
  WS02006240WS02006239        1.53      1.55      1.53      1.82         1.53
  WS02006242WS02006240        1.54      1.54      1.66      1.93         0.01
  WS02006243WS02006242        1.56      1.56      1.61      0.01         0.01
  WS02006245WS02006243        1.55      1.56      1.55      1.90         1.55
  WS02006247WS02006245        1.55      1.58      1.55      2.15         1.55
  WS02006248WS02006247        1.55      1.55      1.57      0.01         0.01
  WS02006249WS02006248        1.54      1.54      1.56      2.13         0.01
  WS02006251WS02006249        1.56      1.57      1.56      1.97         1.56
  WS02006252WS02006251        2.01      2.01      2.01      2.01         0.01
  WS02006256WS02006235        2.36      2.37      3.23      0.02         0.01
  YS02001580YS02001583        0.01      0.01      0.12      0.01         0.01
  YS02001583YS02001586        0.01      0.01      0.26      0.01         0.01
  YS02001586YS02001590        0.27      0.27      0.33      0.01         0.01
  YS02001590YS02001593        0.33      0.33      0.35      0.36         0.01
  YS02001593YS02001596        0.34      0.34      0.43      0.01         0.01
  YS02001596YS02001600        0.45      0.45      0.53      0.01         0.01
  YS02001600YS02001601        0.58      0.58      0.84      0.01         0.01
  YS02001601YS02001602        0.73      0.73      0.89      0.55         0.01
  YS02001602YS02001605        0.69      0.69      0.73      1.73         0.01
  YS02001605YS02001607        0.65      0.69      0.65      0.78         0.65
  YS02001607YS02001610        0.26      0.26      0.29      0.01         0.01
  YS02001610YS02001613        0.25      0.25      0.29      0.01         0.01
  YS02001613YS02001616        0.21      0.21      0.25      0.01         0.01
  YS02001616YS02001619        0.19      0.19      0.21      0.01         0.01
  YS02001619YS02001622        0.18      0.19      0.18      0.36         0.18
  YS02001622YS02001625        0.18      0.18      0.37      0.01         0.01
  YS02001625YS02001629        0.05      0.05      0.37      0.01         0.01
  YS02001629YS02163301        0.36      0.36      0.37      0.23         0.21
  YS02001633YS02163601        0.38      0.38      0.41      0.27         0.27
  YS02001641YS02001644        0.23      0.29      0.23      0.89         0.23
  YS02001644YS02001647        0.01      0.01      0.23      0.01         0.01
  YS02001649YS02001757        0.01      0.01      0.01      0.08         0.01
  YS02001757CaochengTiaoxuchi        0.01      0.01      6.20      0.06         0.01
  YS02001770YS02001767        0.01      0.01      0.01      0.20         0.01
  YS02001783YS02001784        0.23      0.27      0.24      0.25         0.14
  YS02001784YS02001785        0.23      0.24      0.23      0.45         0.23
  YS02001786YS02001788        0.23      0.23      0.23      0.38         0.23
  YS02001788YS02001790        0.23      0.23      6.24      0.01         0.01
  YS02001790YS02001791        6.24      6.24      6.24      0.01         0.01
  YS02001791YS02001793        6.24      6.24      6.26      0.01         0.01
  YS02001793JiankangQianchi        6.25      6.25      6.34      0.01         0.01
  YS02001882YS02001884        0.01      0.01      0.01      0.01         0.01
  YS02001884YS02001887        0.05      0.05      0.13      0.01         0.01
  YS02001887YS02001890        0.16      0.16      0.18      0.01         0.01
  YS02001890YS02001895        0.01      0.01      0.20      0.01         0.01
  YS02001898YS02001901        0.01      0.01      0.07      0.01         0.01
  YS02001901YS02001904        0.02      0.02      0.07      0.01         0.01
  YS02001904YS02001907        0.02      0.02      0.37      0.01         0.01
  YS02001907YS02006553        0.46      0.46      0.51      0.01         0.01
  YS02001910YS02001907        0.20      0.20      0.36      0.01         0.01
  YS02001915YS02001910        0.01      0.01      0.20      0.01         0.01
  YS02006553YS02006556        0.29      0.29      0.37      0.01         0.01
  YS02006556YS02006558        0.33      0.33      0.38      0.01         0.01
  YS02006558YS02006561        0.07      0.28      0.07      0.43         0.07
  YS02006561YS02001783        0.01      0.01      0.27      0.01         0.01
  YS02163301YS02001633        0.37      0.37      0.40      0.01         0.01
  YS02163601YS02164001        0.30      0.30      0.41      0.13         0.01
  YS02164001YS02001641        0.29      0.30      0.29      0.44         0.29
  
  
  ***************
  Pumping Summary
  ***************
  
  ---------------------------------------------------------------------------------------------------------
                                                  Min       Avg       Max     Total     Power    % Time Off
                        Percent   Number of      Flow      Flow      Flow    Volume     Usage    Pump Curve
  Pump                 Utilized   Start-Ups       LPS       LPS       LPS  10^6 ltr     Kw-hr    Low   High
  ---------------------------------------------------------------------------------------------------------
  CC-R1                    1.06           1      0.00    683.00    683.00     0.208      3.51    0.0  100.0
  CC-R2                    1.06           1      0.00    683.00    683.00     0.208      3.51    0.0  100.0
  CC-S1                   27.17           4      0.00    200.00    200.00     1.565      7.94    0.0    0.0
  CC-S2                   25.09           4      0.00    200.00    200.00     1.445      7.45    0.0    0.0
  JK-R1                    0.97           2      0.00    347.46   1000.00     0.078      0.47    0.0    0.0
  JK-R2                    0.97           2      0.00    347.46   1000.00     0.078      0.47    0.0    0.0
  JK-S                     0.97           2      0.00    104.30    300.00     0.023      0.44    0.0    0.0
  XR-1                   100.00           1      0.00     95.00     95.00     2.736     68.18    0.0    0.0
  XR-2                   100.00           1      0.00     95.00     95.00     2.736     68.18    0.0    0.0
  XR-3                   100.00           1      0.00     95.00     95.00     2.736     68.18    0.0    0.0
  XR-4                   100.00           1      0.00     95.00     95.00     2.736     68.18    0.0    0.0
  

  Analysis begun on:  Wed Nov  5 16:30:22 2025
  Analysis ended on:  Wed Nov  5 16:30:25 2025
  Total elapsed time: 00:00:03