
  EPA STORM WATER MANAGEMENT MODEL - VERSION 5.2 (Build 5.2.4)
  PYSWMM TOOLKIT API - VERSION v1.0 (2023-11-27)
  ------------------------------------------------------------

  WARNING 04: minimum elevation drop used for Conduit WS02004404WS02004405
  WARNING 03: negative offset ignored for Link YS02001904YS02001907
  
  ****************
  Analysis Options
  ****************
  Flow Units ............... LPS
  Process Models:
    Rainfall/Runoff ........ YES
    RDII ................... NO
    Snowmelt ............... NO
    Groundwater ............ NO
    Flow Routing ........... YES
    Ponding Allowed ........ NO
    Water Quality .......... NO
  Infiltration Method ...... HORTON
  Flow Routing Method ...... DYNWAVE
  Surcharge Method ......... EXTRAN
  Starting Date ............ 08/28/2015 08:00:00
  Ending Date .............. 08/28/2015 16:00:00
  Antecedent Dry Days ...... 8.0
  Report Time Step ......... 00:01:00
  Wet Time Step ............ 00:01:00
  Dry Time Step ............ 00:01:00
  Routing Time Step ........ 30.00 sec
  Variable Time Step ....... YES
  Maximum Trials ........... 8
  Number of Threads ........ 4
  Head Tolerance ........... 0.001500 m
  
  
  **************************        Volume         Depth
  Runoff Quantity Continuity     hectare-m            mm
  **************************     ---------       -------
  Initial LID Storage ......         0.049         1.488
  Total Precipitation ......         1.864        56.199
  Evaporation Loss .........         0.000         0.000
  Infiltration Loss ........         0.078         2.348
  Surface Runoff ...........         1.368        41.237
  Final Storage ............         0.468        14.112
  Continuity Error (%) .....        -0.017
  
  
  **************************        Volume        Volume
  Flow Routing Continuity        hectare-m      10^6 ltr
  **************************     ---------     ---------
  Dry Weather Inflow .......         0.602         6.020
  Wet Weather Inflow .......         1.368        13.678
  Groundwater Inflow .......         0.000         0.000
  RDII Inflow ..............         0.000         0.000
  External Inflow ..........         0.105         1.045
  External Outflow .........         1.531        15.308
  Flooding Loss ............         0.488         4.885
  Evaporation Loss .........         0.000         0.000
  Exfiltration Loss ........         0.000         0.000
  Initial Stored Volume ....         0.303         3.031
  Final Stored Volume ......         0.813         8.132
  Continuity Error (%) .....       -19.139
  
  
  *************************
  Highest Continuity Errors
  *************************
  Node YS02001774 (38.85%)
  Node WS02006256 (-5.93%)
  Node YS02001583 (-5.76%)
  Node YS02001884 (5.21%)
  Node YS02001754 (4.27%)
  
  
  ***************************
  Time-Step Critical Elements
  ***************************
  Link WS02001212WS02001213 (34.99%)
  Link WS02006235WS02006234 (24.95%)
  Link WS02006238WS02006235 (14.68%)
  Link YS02006556YS02006558 (6.11%)
  Link WS02003066WSF200 (5.52%)
  
  
  ********************************
  Highest Flow Instability Indexes
  ********************************
  Link WS02006113WS02006111 (42)
  Link WS02006238WS02006235 (36)
  Link WS02006111WS02006112 (34)
  Link WS02006256WS02006235 (32)
  Link WS02006239WS02006238 (27)
  
  
  *********************************
  Most Frequent Nonconverging Nodes
  *********************************
  Node CC-1 (13.04%)
  Node CC-2 (13.04%)
  Node JK-1 (13.04%)
  Node JK-2 (13.04%)
  Node WSC (13.04%)
  
  
  *************************
  Routing Time Step Summary
  *************************
  Minimum Time Step           :     0.01 sec
  Average Time Step           :     3.82 sec
  Maximum Time Step           :     6.46 sec
  % of Time in Steady State   :     0.00
  Average Iterations per Step :     3.48
  % of Steps Not Converging   :    13.04
  Time Step Frequencies       :
     30.000 - 13.228 sec      :     0.00 %
     13.228 -  5.833 sec      :    33.64 %
      5.833 -  2.572 sec      :    41.40 %
      2.572 -  1.134 sec      :    18.47 %
      1.134 -  0.500 sec      :     6.49 %
  
  
  ***************************
  Subcatchment Runoff Summary
  ***************************
  
  ------------------------------------------------------------------------------------------------------------------------------
                            Total      Total      Total      Total     Imperv       Perv      Total       Total     Peak  Runoff
                           Precip      Runon       Evap      Infil     Runoff     Runoff     Runoff      Runoff   Runoff   Coeff
  Subcatchment                 mm         mm         mm         mm         mm         mm         mm    10^6 ltr      LPS
  ------------------------------------------------------------------------------------------------------------------------------
  sub60                     56.20       0.00       0.00       1.38      37.24       3.82      41.06        0.54   357.94   0.731
  sub61                     56.20       0.00       0.00       2.13      37.21       5.68      42.89        0.79   523.51   0.763
  sub62                     56.20       0.00       0.00       0.94      39.66       2.60      42.26        1.16   719.33   0.752
  sub63                     56.20       0.00       0.00       3.93      31.87       9.42      41.29        0.94   602.29   0.735
  sub64                     56.20       0.00       0.00       1.88      36.28       4.69      40.97        0.98   590.38   0.729
  sub65                     56.20       0.00       0.00       1.73      39.16       4.28      43.44        1.20   689.97   0.773
  sub66                     56.20       0.00       0.00       4.61      30.81       8.32      39.12        1.82   918.92   0.696
  sub67                     56.20       0.00       0.00       0.93      40.67       2.69      43.36        0.81   550.30   0.772
  sub68                     56.20       0.00       0.00       1.63      35.91       4.36      40.27        1.11   716.08   0.717
  sub69                     56.20       0.00       0.00       1.51      37.78       5.17      42.95        1.59   891.40   0.764
  sub70                     56.20       0.00       0.00       5.09      30.26      10.56      40.81        1.18   532.01   0.726
  sub71                     56.20       0.00       0.00       0.87      36.03       2.34      38.37        1.00   595.00   0.683
  sub72                     56.20       0.00       0.00       0.83      38.91       2.18      41.09        0.56   308.33   0.731
  

  ***********************
  LID Performance Summary
  ***********************

  --------------------------------------------------------------------------------------------------------------------
                                         Total      Evap     Infil   Surface    Drain    Initial     Final  Continuity
                                        Inflow      Loss      Loss   Outflow   Outflow   Storage   Storage       Error
  Subcatchment      LID Control             mm        mm        mm        mm        mm        mm        mm           %
  --------------------------------------------------------------------------------------------------------------------
  sub60             GreenRoof            56.20      0.00      0.00      0.00      0.00      7.05     63.26       -0.01
  sub61             GreenRoof            56.20      0.00      0.00      0.00      0.00      7.05     63.26       -0.01
  sub62             GreenRoof            56.20      0.00      0.00      0.00      0.00      7.05     63.26       -0.01
  sub63             GreenRoof            56.20      0.00      0.00      0.00      0.00      7.05     63.26       -0.01
  sub64             GreenRoof            56.20      0.00      0.00      0.00      0.00      7.05     63.26       -0.01
  sub65             GreenRoof            56.20      0.00      0.00      0.00      0.00      7.05     63.26       -0.01
  sub66             GreenRoof            56.20      0.00      0.00      0.00      0.00      7.05     63.26       -0.01
  sub67             GreenRoof            56.20      0.00      0.00      0.00      0.00      7.05     63.26       -0.01
  sub68             GreenRoof            56.20      0.00      0.00      0.00      0.00      7.05     63.26       -0.01
  sub69             GreenRoof            56.20      0.00      0.00      0.00      0.00      7.05     63.26       -0.01
  sub70             GreenRoof            56.20      0.00      0.00      0.00      0.00      7.05     63.26       -0.01
  sub71             GreenRoof            56.20      0.00      0.00      0.00      0.00      7.05     63.26       -0.01
  sub72             GreenRoof            56.20      0.00      0.00      0.00      0.00      7.05     63.26       -0.01
  
  ******************
  Node Depth Summary
  ******************
  
  ---------------------------------------------------------------------------------
                                 Average  Maximum  Maximum  Time of Max    Reported
                                   Depth    Depth      HGL   Occurrence   Max Depth
  Node                 Type       Meters   Meters   Meters  days hr:min      Meters
  ---------------------------------------------------------------------------------
  WS02001211           JUNCTION     0.76     0.78     5.62     0  03:07        0.78
  WS02001212           JUNCTION     0.46     0.49     5.55     0  03:13        0.49
  WS02001213           JUNCTION     0.68     0.73     5.49     0  03:13        0.73
  WS02003059           JUNCTION     0.73     0.78     5.47     0  03:12        0.78
  WS02003060           JUNCTION     0.38     0.47     5.41     0  03:11        0.47
  WS02003066           JUNCTION     0.16     0.27     5.82     0  02:50        0.27
  WS02003067           JUNCTION     0.44     0.65     5.97     0  02:50        0.65
  WS02003069           JUNCTION     0.43     0.54     5.12     0  03:12        0.54
  WS02003072           JUNCTION     0.49     0.60     4.97     0  03:13        0.60
  WS02003073           JUNCTION     0.30     0.37     4.43     0  03:14        0.37
  WS02004138           JUNCTION     0.19     0.20     7.45     0  00:00        0.19
  WS02004139           JUNCTION     0.71     0.73     5.64     0  03:14        0.73
  WS02004401           JUNCTION     0.52     0.75     6.75     0  02:21        0.75
  WS02004402           JUNCTION     0.55     0.78     6.74     0  02:21        0.78
  WS02004403           JUNCTION     0.58     0.80     6.73     0  02:47        0.80
  WS02004404           JUNCTION     0.65     0.88     6.73     0  02:12        0.88
  WS02004405           JUNCTION     0.65     0.88     6.73     0  02:12        0.87
  WS02004406           JUNCTION     0.66     0.88     6.71     0  02:21        0.88
  WS02004407           JUNCTION     0.14     0.26     6.57     0  02:22        0.26
  WS02004409           JUNCTION     0.32     0.58     6.35     0  02:48        0.58
  WS02004410           JUNCTION     0.34     0.59     6.31     0  03:10        0.59
  WS02004411           JUNCTION     0.37     0.61     6.29     0  02:49        0.61
  WS02004412           JUNCTION     0.39     0.62     6.26     0  02:49        0.62
  WS02004413           JUNCTION     0.54     0.79     6.26     0  02:50        0.79
  WS02006109           JUNCTION     0.58     0.84     7.45     0  02:22        0.83
  WS02006110           JUNCTION     0.58     0.82     7.41     0  02:24        0.82
  WS02006111           JUNCTION     0.15     0.25     6.96     0  03:31        0.25
  WS02006112           JUNCTION     0.67     0.93     6.82     0  02:45        0.93
  WS02006113           JUNCTION     0.22     0.39     7.29     0  02:23        0.39
  WS02006115           JUNCTION     0.41     0.65     6.78     0  02:20        0.65
  WS02006116           JUNCTION     0.49     0.73     6.77     0  02:11        0.73
  WS02006228           JUNCTION     0.56     0.85     7.50     0  02:22        0.84
  WS02006229           JUNCTION     0.53     0.83     7.52     0  02:22        0.83
  WS02006230           JUNCTION     0.52     0.86     7.60     0  02:23        0.86
  WS02006231           JUNCTION     0.32     0.60     7.72     0  02:57        0.60
  WS02006232           JUNCTION     0.44     0.75     7.79     0  02:29        0.75
  WS02006234           JUNCTION     0.36     0.71     7.87     0  02:56        0.71
  WS02006235           JUNCTION     0.39     0.77     7.93     0  02:20        0.77
  WS02006238           JUNCTION     0.42     0.81     7.95     0  02:42        0.81
  WS02006239           JUNCTION     0.40     0.81     8.02     0  02:21        0.80
  WS02006240           JUNCTION     0.39     0.79     8.08     0  02:16        0.79
  WS02006242           JUNCTION     0.45     0.90     8.17     0  02:44        0.90
  WS02006243           JUNCTION     0.39     0.84     8.26     0  02:52        0.84
  WS02006245           JUNCTION     0.40     0.86     8.34     0  02:16        0.85
  WS02006247           JUNCTION     0.42     0.89     8.39     0  02:43        0.89
  WS02006248           JUNCTION     0.40     0.86     8.45     0  02:34        0.86
  WS02006249           JUNCTION     0.42     0.93     8.53     0  02:42        0.93
  WS02006251           JUNCTION     0.42     0.91     8.58     0  02:22        0.91
  WS02006252           JUNCTION     0.28     1.50     9.74     0  00:00        0.60
  WS02006256           JUNCTION     0.63     2.35     9.28     0  00:00        2.35
  WSF200               JUNCTION     0.13     0.25     5.48     0  03:11        0.25
  YS02001580           JUNCTION     0.08     1.05     9.59     0  02:16        0.77
  YS02001583           JUNCTION     0.11     1.08     9.58     0  02:16        0.82
  YS02001586           JUNCTION     0.19     1.13     9.30     0  02:16        1.13
  YS02001590           JUNCTION     0.29     1.40     9.26     0  02:16        1.37
  YS02001593           JUNCTION     0.23     1.34     9.20     0  02:16        1.29
  YS02001596           JUNCTION     0.46     1.69     9.10     0  02:16        1.65
  YS02001600           JUNCTION     0.67     1.87     9.00     0  02:16        1.86
  YS02001601           JUNCTION     0.92     2.06     8.90     0  02:16        2.06
  YS02001602           JUNCTION     0.83     1.87     8.77     0  02:19        1.87
  YS02001605           JUNCTION     0.80     1.78     8.68     0  02:42        1.78
  YS02001607           JUNCTION     0.79     1.68     8.53     0  02:42        1.68
  YS02001610           JUNCTION     0.83     1.68     8.48     0  02:20        1.68
  YS02001613           JUNCTION     0.79     1.70     8.54     0  02:42        1.70
  YS02001616           JUNCTION     0.73     1.61     8.52     0  02:34        1.61
  YS02001619           JUNCTION     0.71     1.61     8.54     0  02:34        1.61
  YS02001622           JUNCTION     0.71     1.62     8.52     0  02:42        1.62
  YS02001625           JUNCTION     0.96     1.78     8.38     0  02:20        1.78
  YS02001629           JUNCTION     0.97     1.85     8.40     0  02:22        1.85
  YS02001633           JUNCTION     1.05     2.02     8.47     0  02:34        1.97
  YS02001641           JUNCTION     1.03     1.96     8.39     0  02:34        1.93
  YS02001644           JUNCTION     1.03     1.92     8.35     0  02:23        1.92
  YS02001647           JUNCTION     0.84     1.72     8.33     0  02:24        1.71
  YS02001649           JUNCTION     0.98     1.90     8.29     0  02:24        1.89
  YS02001652           JUNCTION     0.81     1.73     8.33     0  02:24        1.73
  YS02001655           JUNCTION     0.63     1.56     8.41     0  02:23        1.50
  YS02001658           JUNCTION     0.44     1.39     8.53     0  02:23        1.22
  YS02001661           JUNCTION     0.29     1.03     8.43     0  02:24        0.97
  YS02001664           JUNCTION     0.06     0.44     8.37     0  02:24        0.44
  YS02001745           JUNCTION     0.18     0.69     8.21     0  02:24        0.68
  YS02001748           JUNCTION     0.47     1.31     8.39     0  02:23        1.11
  YS02001751           JUNCTION     0.59     1.39     8.27     0  02:23        1.31
  YS02001754           JUNCTION     0.78     1.62     8.23     0  02:23        1.58
  YS02001757           JUNCTION     1.05     1.92     8.18     0  02:25        1.92
  YS02001759           JUNCTION     0.97     2.03     8.40     0  03:43        2.03
  YS02001762           JUNCTION     0.95     2.00     8.40     0  03:43        2.00
  YS02001765           JUNCTION     0.91     1.86     8.31     0  02:23        1.85
  YS02001767           JUNCTION     0.89     1.86     8.35     0  02:23        1.84
  YS02001770           JUNCTION     0.89     1.95     8.44     0  02:21        1.88
  YS02001774           JUNCTION     0.95     2.05     8.47     0  02:21        1.95
  YS02001779           JUNCTION     0.72     1.68     8.37     0  02:21        1.68
  YS02001783           JUNCTION     0.48     1.51     7.65     0  02:21        1.48
  YS02001784           JUNCTION     0.52     1.45     7.52     0  02:21        1.43
  YS02001786           JUNCTION     0.52     1.29     7.32     0  02:21        1.27
  YS02001788           JUNCTION     0.52     1.15     7.13     0  02:21        1.14
  YS02001790           JUNCTION     0.75     1.31     6.96     0  02:21        1.30
  YS02001791           JUNCTION     0.84     1.28     6.75     0  02:21        1.28
  YS02001793           JUNCTION     1.28     1.81     6.64     0  02:19        1.80
  YS02001882           JUNCTION     0.30     1.65     8.37     0  02:34        1.63
  YS02001884           JUNCTION     0.39     1.74     8.36     0  02:34        1.72
  YS02001887           JUNCTION     0.47     1.81     8.35     0  02:24        1.81
  YS02001890           JUNCTION     0.49     1.81     8.32     0  02:21        1.81
  YS02001895           JUNCTION     0.27     1.57     8.32     0  02:34        1.56
  YS02001898           JUNCTION     0.28     1.58     8.31     0  02:34        1.55
  YS02001901           JUNCTION     0.39     1.69     8.30     0  02:34        1.67
  YS02001904           JUNCTION     0.37     1.65     8.28     0  02:34        1.63
  YS02001907           JUNCTION     0.68     1.96     8.25     0  02:21        1.96
  YS02001910           JUNCTION     0.48     1.99     8.49     0  02:21        1.81
  YS02001915           JUNCTION     0.30     1.94     8.66     0  02:21        1.66
  YS02001918           JUNCTION     0.15     1.81     8.88     0  02:21        1.35
  YS02001920           JUNCTION     0.23     2.09     9.10     0  02:21        1.43
  YS02001923           JUNCTION     0.11     2.01     9.27     0  02:21        1.27
  YS02001926           JUNCTION     0.15     1.90     9.35     0  02:21        1.15
  YS02001929           JUNCTION     0.08     1.78     9.47     0  02:21        1.00
  YS02006553           JUNCTION     0.68     1.98     8.26     0  02:23        1.97
  YS02006556           JUNCTION     0.66     1.95     8.26     0  02:23        1.94
  YS02006558           JUNCTION     0.70     1.99     8.26     0  02:23        1.99
  YS02006561           JUNCTION     0.17     1.12     7.78     0  02:21        1.10
  YS02163301           JUNCTION     1.00     1.92     8.44     0  02:34        1.90
  YS02163601           JUNCTION     1.09     2.06     8.46     0  02:34        2.00
  YS02164001           JUNCTION     1.02     1.98     8.44     0  02:34        1.93
  CC-1                 OUTFALL      0.00     0.00     0.00     0  00:00        0.00
  CC-2                 OUTFALL      0.00     0.00     0.00     0  00:00        0.00
  JK-1                 OUTFALL      0.00     0.00     0.00     0  00:00        0.00
  JK-2                 OUTFALL      0.00     0.00     0.00     0  00:00        0.00
  WSC                  OUTFALL      0.29     0.37     1.04     0  03:14        0.37
  CC-storage           STORAGE      1.61     2.27     7.77     0  03:07        2.27
  JK-storage           STORAGE      4.36     5.80     6.60     0  02:05        5.80
  XR-storage           STORAGE      0.31     5.00     3.00     0  00:00        4.91
  
  
  *******************
  Node Inflow Summary
  *******************
  
  -------------------------------------------------------------------------------------------------
                                  Maximum  Maximum                  Lateral       Total        Flow
                                  Lateral    Total  Time of Max      Inflow      Inflow     Balance
                                   Inflow   Inflow   Occurrence      Volume      Volume       Error
  Node                 Type           LPS      LPS  days hr:min    10^6 ltr    10^6 ltr     Percent
  -------------------------------------------------------------------------------------------------
  WS02001211           JUNCTION      7.35   389.15     0  03:43       0.212        11.1       0.348
  WS02001212           JUNCTION      0.00   390.86     0  03:46           0        11.1       0.207
  WS02001213           JUNCTION      0.00   392.63     0  03:45           0        11.1       0.238
  WS02003059           JUNCTION      0.00   395.68     0  03:45           0          11       0.328
  WS02003060           JUNCTION     16.53   816.08     0  03:11       0.476        14.8       0.147
  WS02003066           JUNCTION      0.00   411.88     0  02:50           0        3.31       0.036
  WS02003067           JUNCTION      0.00   411.87     0  02:50           0        3.32       0.120
  WS02003069           JUNCTION      0.32   816.38     0  03:12     0.00922        14.8       0.154
  WS02003072           JUNCTION      0.00   816.36     0  03:12           0        14.7       0.201
  WS02003073           JUNCTION      1.82   818.18     0  03:13      0.0524        14.8       0.216
  WS02004138           JUNCTION      0.00   380.00     0  00:00           0        10.9       0.059
  WS02004139           JUNCTION      0.32   395.52     0  00:00     0.00924        10.9       0.407
  WS02004401           JUNCTION      0.00   412.14     0  02:11           0        3.41       0.291
  WS02004402           JUNCTION      0.00   412.08     0  02:21           0         3.4       0.296
  WS02004403           JUNCTION      0.00   412.08     0  02:11           0        3.39       0.291
  WS02004404           JUNCTION      0.16   412.21     0  02:21     0.00467        3.39       0.243
  WS02004405           JUNCTION      0.04   412.24     0  02:21      0.0011        3.38       0.362
  WS02004406           JUNCTION      0.00   412.19     0  02:46           0        3.37       0.605
  WS02004407           JUNCTION      0.00   412.06     0  02:22           0        3.35       0.026
  WS02004409           JUNCTION      0.00   412.00     0  02:22           0        3.35       0.063
  WS02004410           JUNCTION      0.00   411.97     0  02:22           0        3.34       0.116
  WS02004411           JUNCTION      0.00   411.95     0  02:22           0        3.34       0.153
  WS02004412           JUNCTION      0.00   411.94     0  02:13           0        3.34       0.210
  WS02004413           JUNCTION      0.00   411.95     0  02:50           0        3.33       0.376
  WS02006109           JUNCTION      1.23   412.07     0  02:21      0.0354        3.46       0.226
  WS02006110           JUNCTION      0.00   411.77     0  02:22           0        3.45       0.180
  WS02006111           JUNCTION      0.00   423.74     0  02:10           0        3.44       0.024
  WS02006112           JUNCTION      0.00   413.77     0  03:31           0        3.44       0.507
  WS02006113           JUNCTION      0.00   411.99     0  02:45           0        3.44       0.040
  WS02006115           JUNCTION      0.00   412.43     0  02:20           0        3.42       0.181
  WS02006116           JUNCTION      0.00   412.22     0  02:20           0        3.42       0.131
  WS02006228           JUNCTION      0.00   411.78     0  02:22           0        3.42       0.084
  WS02006229           JUNCTION      0.00   410.76     0  02:22           0        3.43       0.130
  WS02006230           JUNCTION     10.28   410.58     0  02:23       0.296        3.43       0.174
  WS02006231           JUNCTION      0.00   400.40     0  02:22           0        3.14      -0.100
  WS02006232           JUNCTION      0.00   400.41     0  02:23           0        3.14       0.263
  WS02006234           JUNCTION      0.00   402.33     0  02:20           0        3.14      -0.174
  WS02006235           JUNCTION      0.00   402.39     0  02:36           0        3.15       0.234
  WS02006238           JUNCTION      0.00   401.77     0  02:36           0        3.13      -0.201
  WS02006239           JUNCTION      0.00   401.41     0  02:41           0        3.12      -0.151
  WS02006240           JUNCTION      0.00   400.98     0  02:43           0        3.12      -0.041
  WS02006242           JUNCTION      0.00   401.11     0  02:52           0        3.11       0.006
  WS02006243           JUNCTION      0.00   400.85     0  02:54           0        3.11       0.027
  WS02006245           JUNCTION      0.00   403.64     0  02:44           0        3.12       0.314
  WS02006247           JUNCTION      0.00   401.01     0  02:17           0        3.12       0.015
  WS02006248           JUNCTION      0.00   401.43     0  02:20           0        3.13       0.092
  WS02006249           JUNCTION      0.00   458.97     0  00:00           0        3.13       0.216
  WS02006251           JUNCTION      0.08   401.19     0  02:29     0.00222        3.13      -0.002
  WS02006252           JUNCTION      0.00   400.00     0  00:00           0        3.13      -0.029
  WS02006256           JUNCTION      0.00   300.00     0  00:00           0      0.0242      -5.600
  WSF200               JUNCTION      0.00   411.87     0  02:50           0        3.31       0.016
  YS02001580           JUNCTION      0.00    75.36     0  02:16           0     0.00394       1.244
  YS02001583           JUNCTION      0.00   132.71     0  02:16           0      0.0149      -5.446
  YS02001586           JUNCTION    532.01   532.04     0  02:26        1.18        1.19       0.087
  YS02001590           JUNCTION      0.00   317.93     0  02:35           0        1.06       0.042
  YS02001593           JUNCTION      0.00   318.06     0  02:31           0        1.06       0.051
  YS02001596           JUNCTION      0.00   318.00     0  02:28           0        1.06       0.276
  YS02001600           JUNCTION      0.00   317.99     0  02:23           0        1.06       0.741
  YS02001601           JUNCTION    891.40  1208.93     0  02:25        1.59        2.64       0.343
  YS02001602           JUNCTION      0.00   492.34     0  02:15           0        1.93       0.489
  YS02001605           JUNCTION      0.00   492.71     0  02:15           0        1.84       0.763
  YS02001607           JUNCTION      0.00   492.11     0  02:15           0        1.82       1.159
  YS02001610           JUNCTION      0.00   494.36     0  02:15           0        1.82       1.258
  YS02001613           JUNCTION      0.00   496.24     0  02:15           0        1.56       1.534
  YS02001616           JUNCTION      0.00   496.22     0  02:15           0        1.54       1.372
  YS02001619           JUNCTION    918.92   934.18     0  02:20        1.82        3.33       0.630
  YS02001622           JUNCTION      0.00   934.84     0  02:20           0         3.3       0.866
  YS02001625           JUNCTION      0.00  1008.59     0  02:26           0         3.3       1.376
  YS02001629           JUNCTION      0.00   934.46     0  02:20           0        2.77       0.815
  YS02001633           JUNCTION    690.17  1359.26     0  02:20         1.2        3.88       0.835
  YS02001641           JUNCTION      0.00  1356.56     0  02:20           0        3.78       0.571
  YS02001644           JUNCTION    590.42  1721.52     0  02:20       0.985        4.74       0.558
  YS02001647           JUNCTION      0.00  1725.56     0  02:20           0        4.66       0.617
  YS02001649           JUNCTION      0.00  1926.25     0  02:19           0        5.53       0.682
  YS02001652           JUNCTION      0.00   633.89     0  02:25           0       0.934       2.552
  YS02001655           JUNCTION      0.15   632.44     0  02:25     0.00443       0.956       2.256
  YS02001658           JUNCTION      0.00   630.29     0  02:25           0        0.97       1.363
  YS02001661           JUNCTION      0.00   779.80     0  02:24           0       0.959       0.636
  YS02001664           JUNCTION    602.29   602.29     0  02:25       0.937       0.937      -0.037
  YS02001745           JUNCTION    357.94   357.94     0  02:25        0.54       0.591       0.772
  YS02001748           JUNCTION      0.04   446.61     0  02:23      0.0013        0.61       2.144
  YS02001751           JUNCTION      0.01   377.36     0  02:24    0.000317       0.566       3.712
  YS02001754           JUNCTION      0.26   377.98     0  02:24     0.00749       0.553       4.459
  YS02001757           JUNCTION      0.00  3114.17     0  02:24           0        7.78       1.210
  YS02001759           JUNCTION    523.55  1220.74     0  02:25       0.788        1.82       1.267
  YS02001762           JUNCTION      0.00   710.01     0  02:25           0        1.05       2.018
  YS02001765           JUNCTION      0.00   709.93     0  02:25           0        1.08       2.313
  YS02001767           JUNCTION      0.54   709.78     0  02:25      0.0154        1.11       3.313
  YS02001770           JUNCTION    719.49   719.49     0  02:25        1.16        1.18       2.724
  YS02001774           JUNCTION      0.00   258.52     0  02:21           0      0.0644      63.527
  YS02001779           JUNCTION      0.01   259.47     0  02:21    0.000144      0.0261     131.532
  YS02001783           JUNCTION      0.00   976.29     0  02:24           0        3.03       0.233
  YS02001784           JUNCTION      1.06   976.54     0  02:23      0.0305        3.05       0.343
  YS02001786           JUNCTION      0.06   976.23     0  02:23     0.00162        3.04       0.445
  YS02001788           JUNCTION      0.07   976.86     0  02:23     0.00204        3.03       0.450
  YS02001790           JUNCTION      0.15   977.38     0  02:23     0.00446        3.02       0.561
  YS02001791           JUNCTION      0.00   976.91     0  02:23           0           3       0.481
  YS02001793           JUNCTION      0.00   978.03     0  02:23           0        2.99       0.549
  YS02001882           JUNCTION      0.00    32.99     0  02:18           0      0.0127       5.095
  YS02001884           JUNCTION      0.00    62.62     0  02:18           0      0.0486       5.492
  YS02001887           JUNCTION    550.75   551.04     0  02:25       0.819       0.853       0.527
  YS02001890           JUNCTION      0.00   552.23     0  02:25           0       0.812       0.641
  YS02001895           JUNCTION      0.00   511.36     0  02:26           0       0.802       0.183
  YS02001898           JUNCTION      0.00   512.47     0  02:26           0         0.8       0.052
  YS02001901           JUNCTION      0.00   511.29     0  02:26           0       0.803       0.414
  YS02001904           JUNCTION      0.00   511.86     0  02:25           0       0.806       0.375
  YS02001907           JUNCTION      0.00  1474.99     0  02:25           0        2.45       0.757
  YS02001910           JUNCTION      0.00   963.13     0  02:26           0        1.65       0.436
  YS02001915           JUNCTION    595.02   963.20     0  02:25           1        1.69       0.096
  YS02001918           JUNCTION      0.00   454.63     0  02:22           0       0.715       0.018
  YS02001920           JUNCTION      2.87   453.69     0  02:22      0.0827       0.699       0.127
  YS02001923           JUNCTION      0.04   425.01     0  02:22     0.00109         0.6      -0.158
  YS02001926           JUNCTION      0.05   559.09     0  02:21      0.0015       0.579       0.022
  YS02001929           JUNCTION    308.33   321.87     0  02:21       0.565       0.566      -0.190
  YS02006553           JUNCTION      0.00   685.00     0  02:34           0        1.94       0.625
  YS02006556           JUNCTION      0.00   677.05     0  02:34           0        1.95       0.432
  YS02006558           JUNCTION    716.96   975.82     0  02:23        1.13        3.06       0.123
  YS02006561           JUNCTION      0.00   975.43     0  02:24           0        3.03      -0.010
  YS02163301           JUNCTION      0.00   935.91     0  02:20           0        2.74       0.886
  YS02163601           JUNCTION      0.11  1359.45     0  02:20     0.00317        3.82       0.799
  YS02164001           JUNCTION      0.00  1358.51     0  02:20           0        3.79       0.551
  CC-1                 OUTFALL       0.00   683.00     0  00:00           0       0.208       0.000
  CC-2                 OUTFALL       0.00   683.00     0  00:00           0       0.208       0.000
  JK-1                 OUTFALL       0.00  1000.00     0  00:00           0      0.0791       0.000
  JK-2                 OUTFALL       0.00  1000.00     0  00:00           0      0.0791       0.000
  WSC                  OUTFALL       0.00   818.16     0  03:14           0        14.7       0.000
  CC-storage           STORAGE       0.00  3115.60     0  02:24           0        9.88       0.448
  JK-storage           STORAGE       0.00   977.65     0  02:23           0        3.12       0.523
  XR-storage           STORAGE     200.00   200.00     0  00:00        5.76        6.36     -41.886
  
  
  **********************
  Node Surcharge Summary
  **********************
  
  Surcharging occurs when water rises above the top of the highest conduit.
  ---------------------------------------------------------------------
                                               Max. Height   Min. Depth
                                   Hours       Above Crown    Below Rim
  Node                 Type      Surcharged         Meters       Meters
  ---------------------------------------------------------------------
  WS02006109           JUNCTION        1.84          0.016        1.804
  WS02006228           JUNCTION        1.83          0.019        2.181
  WS02006229           JUNCTION        1.85          0.027        2.423
  WS02006232           JUNCTION        1.91          0.050        1.430
  WS02006235           JUNCTION        1.85          0.057        1.233
  WS02006238           JUNCTION        1.88          0.088        1.342
  WS02006239           JUNCTION        1.86          0.068        1.222
  WS02006240           JUNCTION        1.86          0.081        1.309
  WS02006242           JUNCTION        1.94          0.175        0.645
  WS02006243           JUNCTION        1.88          0.132        0.638
  WS02006245           JUNCTION        1.88          0.150        0.700
  WS02006247           JUNCTION        1.90          0.182        0.578
  WS02006248           JUNCTION        1.88          0.138        0.242
  WS02006249           JUNCTION        1.89          0.230        0.160
  WS02006252           JUNCTION        2.17          1.100        0.000
  WS02006256           JUNCTION        3.09          2.050        0.000
  YS02001580           JUNCTION        0.40          0.450        0.000
  YS02001583           JUNCTION        0.41          0.441        0.059
  YS02001586           JUNCTION        0.56          0.510        0.000
  YS02001590           JUNCTION        0.64          0.750        0.000
  YS02001593           JUNCTION        0.65          0.718        0.122
  YS02001596           JUNCTION        0.82          0.955        0.115
  YS02001600           JUNCTION        1.14          1.190        0.000
  YS02001601           JUNCTION        6.12          1.440        0.000
  YS02001602           JUNCTION        6.04          1.270        0.000
  YS02001605           JUNCTION        6.00          1.180        0.000
  YS02001607           JUNCTION        0.82          0.680        0.000
  YS02001610           JUNCTION        0.94          0.680        0.000
  YS02001613           JUNCTION        0.82          0.700        0.000
  YS02001616           JUNCTION        0.76          0.610        0.000
  YS02001619           JUNCTION        0.74          0.610        0.000
  YS02001622           JUNCTION        0.76          0.620        0.000
  YS02001625           JUNCTION        5.79          0.780        0.000
  YS02001629           JUNCTION        0.69          0.470        0.000
  YS02001633           JUNCTION        5.80          0.995        0.065
  YS02001641           JUNCTION        5.76          0.957        0.143
  YS02001644           JUNCTION        5.74          0.920        0.000
  YS02001647           JUNCTION        5.66          0.720        0.180
  YS02001649           JUNCTION        5.67          0.899        0.151
  YS02001652           JUNCTION        5.64          0.703        0.427
  YS02001655           JUNCTION        0.40          0.559        0.641
  YS02001658           JUNCTION        0.10          0.385        0.915
  YS02001748           JUNCTION        0.04          0.232        0.958
  YS02001751           JUNCTION        0.18          0.391        0.809
  YS02001754           JUNCTION        5.64          0.572        0.578
  YS02001757           JUNCTION        5.67          0.921        0.289
  YS02001759           JUNCTION        5.66          1.035        0.175
  YS02001762           JUNCTION        5.65          0.996        0.154
  YS02001765           JUNCTION        5.65          0.864        0.236
  YS02001767           JUNCTION        5.65          0.859        0.171
  YS02001770           JUNCTION        5.65          0.920        0.000
  YS02001774           JUNCTION        5.65          1.050        0.000
  YS02001779           JUNCTION        5.49          0.680        0.000
  YS02001783           JUNCTION        0.59          0.705        0.895
  YS02001784           JUNCTION        0.60          0.652        0.838
  YS02001786           JUNCTION        0.59          0.491        0.939
  YS02001788           JUNCTION        0.59          0.355        1.125
  YS02001790           JUNCTION        5.92          0.510        0.647
  YS02001791           JUNCTION        5.93          0.483        1.437
  YS02001793           JUNCTION        5.97          0.808        1.792
  YS02001882           JUNCTION        0.35          0.649        0.181
  YS02001884           JUNCTION        0.36          0.682        0.188
  YS02001887           JUNCTION        0.39          0.757        0.193
  YS02001890           JUNCTION        0.40          0.760        0.000
  YS02001895           JUNCTION        0.34          0.573        0.177
  YS02001898           JUNCTION        0.33          0.548        0.192
  YS02001901           JUNCTION        0.38          0.687        0.183
  YS02001904           JUNCTION        0.37          0.645        0.205
  YS02001907           JUNCTION        0.60          0.950        0.000
  YS02001910           JUNCTION        0.43          0.985        0.115
  YS02001915           JUNCTION        0.35          0.944        0.056
  YS02001918           JUNCTION        0.26          0.810        0.000
  YS02001920           JUNCTION        0.27          1.094        0.046
  YS02001923           JUNCTION        0.01          0.795        0.025
  YS02001926           JUNCTION        0.01          0.900        0.000
  YS02001929           JUNCTION        0.01          0.780        0.000
  YS02006553           JUNCTION        0.62          0.975        0.215
  YS02006556           JUNCTION        0.52          0.911        0.439
  YS02006558           JUNCTION        0.50          0.893        0.507
  YS02006561           JUNCTION        0.30          0.320        0.830
  YS02163301           JUNCTION        5.79          0.921        0.109
  YS02163601           JUNCTION        5.81          1.058        0.022
  YS02164001           JUNCTION        5.76          0.978        0.122
  
  
  *********************
  Node Flooding Summary
  *********************
  
  Flooding refers to all water that overflows a node, whether it ponds or not.
  --------------------------------------------------------------------------
                                                             Total   Maximum
                                 Maximum   Time of Max       Flood    Ponded
                        Hours       Rate    Occurrence      Volume     Depth
  Node                 Flooded       LPS   days hr:min    10^6 ltr    Meters
  --------------------------------------------------------------------------
  WS02006252              0.01    245.63      0  00:00       0.000     0.000
  WS02006256              0.02    293.19      0  00:00       0.005     0.000
  YS02001580              0.01     21.59      0  02:16       0.000     0.000
  YS02001586              0.29    214.51      0  02:26       0.115     0.000
  YS02001590              0.01     10.49      0  02:16       0.000     0.000
  YS02001600              0.01      3.49      0  02:16       0.000     0.000
  YS02001601              0.49    811.00      0  02:25       0.708     0.000
  YS02001602              0.42     61.96      0  02:22       0.079     0.000
  YS02001605              0.01      0.24      0  02:42       0.000     0.000
  YS02001607              0.01      0.94      0  02:42       0.000     0.000
  YS02001610              0.33    403.29      0  02:26       0.251     0.000
  YS02001613              0.01      1.59      0  02:42       0.000     0.000
  YS02001616              0.01     16.62      0  02:34       0.000     0.000
  YS02001619              0.01     14.07      0  02:34       0.000     0.000
  YS02001622              0.01      0.81      0  02:42       0.000     0.000
  YS02001625              0.32   1008.34      0  02:26       0.521     0.000
  YS02001629              0.06     85.91      0  02:24       0.010     0.000
  YS02001644              0.07    316.91      0  02:25       0.048     0.000
  YS02001770              0.01     88.90      0  02:21       0.000     0.000
  YS02001774              0.01     21.63      0  02:21       0.000     0.000
  YS02001779              0.03    162.66      0  02:21       0.002     0.000
  YS02001890              0.06     44.06      0  02:25       0.005     0.000
  YS02001907              0.22   1194.64      0  02:25       0.503     0.000
  YS02001918              0.01    114.49      0  02:21       0.001     0.000
  YS02001926              0.01     25.00      0  02:21       0.000     0.000
  YS02001929              0.01    219.70      0  02:21       0.001     0.000
  JK-storage              5.91    977.46      0  02:23       2.634     0.000
  
  
  **********************
  Storage Volume Summary
  **********************
  
  ------------------------------------------------------------------------------------------------
                         Average    Avg   Evap  Exfil     Maximum    Max    Time of Max    Maximum
                          Volume   Pcnt   Pcnt   Pcnt      Volume   Pcnt     Occurrence    Outflow
  Storage Unit           1000 m³   Full   Loss   Loss     1000 m³   Full    days hr:min        LPS
  ------------------------------------------------------------------------------------------------
  CC-storage               4.489   70.0    0.0    0.0       6.317   98.5       0  03:07    1783.53
  JK-storage               0.219   75.1    0.0    0.0       0.291  100.0       0  02:05    2300.00
  XR-storage               0.037    2.6    0.0    0.0       0.600   41.7       0  00:00     380.00
  
  
  ***********************
  Outfall Loading Summary
  ***********************
  
  -----------------------------------------------------------
                         Flow       Avg       Max       Total
                         Freq      Flow      Flow      Volume
  Outfall Node           Pcnt       LPS       LPS    10^6 ltr
  -----------------------------------------------------------
  CC-1                   1.35    683.00    683.00       0.208
  CC-2                   1.35    683.00    683.00       0.208
  JK-1                   1.26    347.46   1000.00       0.079
  JK-2                   1.26    347.46   1000.00       0.079
  WSC                   99.92    571.63    818.16      14.733
  -----------------------------------------------------------
  System                21.03   2632.55   3366.35      15.308
  
  
  ********************
  Link Flow Summary
  ********************
  
  -----------------------------------------------------------------------------
                                 Maximum  Time of Max   Maximum    Max/    Max/
                                  |Flow|   Occurrence   |Veloc|    Full    Full
  Link                 Type          LPS  days hr:min     m/sec    Flow   Depth
  -----------------------------------------------------------------------------
  1                    CONDUIT    818.16     0  03:14      3.15    0.28    0.37
  WS02001211WS02001212 CONDUIT    390.86     0  03:46      0.78    0.30    0.64
  WS02001212WS02001213 CONDUIT    392.63     0  03:45      1.32    0.61    0.45
  WS02001213WS02003059 CONDUIT    395.68     0  03:45      0.85    0.65    0.75
  WS02003059WS02003060 CONDUIT    399.98     0  03:45      0.95    0.26    0.63
  WS02003060WS02003069 CONDUIT    816.06     0  03:12      1.80    0.32    0.42
  WS02003066WSF200     CONDUIT    411.87     0  02:50      2.69    0.07    0.19
  WS02003067WS02003066 CONDUIT    411.88     0  02:50      1.04    0.13    0.38
  WS02003069WS02003072 CONDUIT    816.36     0  03:12      1.55    0.39    0.47
  WS02003072WS02003073 CONDUIT    816.35     0  03:13      1.64    1.76    0.45
  WS02004138WS02004139 CONDUIT    395.20     0  00:00      3.65    0.08    0.43
  WS02004139WS02001211 CONDUIT    381.80     0  03:43      0.91    0.48    0.59
  WS02004401WS02004402 CONDUIT    412.08     0  02:21      0.99    0.49    0.77
  WS02004402WS02004403 CONDUIT    412.08     0  02:11      0.99    0.59    0.79
  WS02004403WS02004404 CONDUIT    412.04     0  02:21      0.93    0.30    0.84
  WS02004404WS02004405 CONDUIT    412.20     0  02:21      1.10    4.04    0.88
  WS02004405WS02004406 CONDUIT    412.19     0  02:46      1.03    0.81    0.88
  WS02004406WS02004407 CONDUIT    412.06     0  02:22      0.89    0.18    0.57
  WS02004407WS02004409 CONDUIT    412.00     0  02:22      1.41    0.15    0.42
  WS02004409WS02004410 CONDUIT    411.97     0  02:22      0.92    0.53    0.58
  WS02004410WS02004411 CONDUIT    411.95     0  02:22      0.86    0.56    0.60
  WS02004411WS02004412 CONDUIT    411.94     0  02:13      0.81    0.59    0.61
  WS02004412WS02004413 CONDUIT    411.95     0  02:50      0.70    0.28    0.70
  WS02004413WS02003067 CONDUIT    411.87     0  02:50      0.96    0.18    0.53
  WS02006109WS02006110 CONDUIT    411.77     0  02:22      0.84    0.79    0.94
  WS02006110WS02006113 CONDUIT    411.99     0  02:45      1.03    0.37    0.75
  WS02006111WS02006112 CONDUIT    413.77     0  03:31      1.83    0.20    0.65
  WS02006112WS02006115 CONDUIT    412.43     0  02:20      0.71    0.24    0.78
  WS02006113WS02006111 CONDUIT    423.74     0  02:10      2.25    0.51    0.40
  WS02006115WS02006116 CONDUIT    412.22     0  02:20      0.98    0.53    0.66
  WS02006116WS02004401 CONDUIT    412.14     0  02:11      1.00    0.57    0.74
  WS02006228WS02006109 CONDUIT    410.84     0  02:21      1.06    1.80    1.00
  WS02006229WS02006228 CONDUIT    411.78     0  02:22      1.13    1.36    1.00
  WS02006230WS02006229 CONDUIT    410.76     0  02:22      1.22    9.14    1.00
  WS02006231WS02006230 CONDUIT    400.30     0  02:23      1.37    6.07    0.77
  WS02006232WS02006231 CONDUIT    400.40     0  02:22      1.08    0.84    0.92
  WS02006234WS02006232 CONDUIT    400.41     0  02:23      1.40    0.81    1.00
  WS02006235WS02006234 CONDUIT    402.33     0  02:20      1.30    4.24    0.99
  WS02006238WS02006235 CONDUIT    402.38     0  02:36      1.48    0.90    1.00
  WS02006239WS02006238 CONDUIT    401.77     0  02:36      1.21    1.29    1.00
  WS02006240WS02006239 CONDUIT    401.41     0  02:41      1.30    1.26    1.00
  WS02006242WS02006240 CONDUIT    400.98     0  02:43      1.17    1.59    1.00
  WS02006243WS02006242 CONDUIT    401.11     0  02:52      1.43    0.86    1.00
  WS02006245WS02006243 CONDUIT    400.85     0  02:54      1.45    1.19    1.00
  WS02006247WS02006245 CONDUIT    403.64     0  02:44      1.43    3.20    1.00
  WS02006248WS02006247 CONDUIT    401.01     0  02:17      1.46    0.87    1.00
  WS02006249WS02006248 CONDUIT    401.43     0  02:20      1.38    2.20    1.00
  WS02006251WS02006249 CONDUIT    458.97     0  00:00      1.99    1.32    1.00
  WS02006252WS02006251 CONDUIT    401.11     0  02:29     24.55    1.47    1.00
  WS02006256WS02006235 CONDUIT    288.91     0  00:00      4.23    3.06    1.00
  WSF200WS02003060     CONDUIT    411.88     0  03:11      1.43    0.09    0.30
  YS02001580YS02001583 CONDUIT     75.36     0  02:16      0.54    0.29    1.00
  YS02001583YS02001586 CONDUIT    132.71     0  02:16      0.55    0.20    1.00
  YS02001586YS02001590 CONDUIT    317.93     0  02:35      1.26    0.56    1.00
  YS02001590YS02001593 CONDUIT    318.06     0  02:31      1.12    2.00    1.00
  YS02001593YS02001596 CONDUIT    318.00     0  02:28      1.63    0.50    1.00
  YS02001596YS02001600 CONDUIT    317.99     0  02:23      1.12    0.62    1.00
  YS02001600YS02001601 CONDUIT    318.01     0  02:34      1.12    0.55    1.00
  YS02001601YS02001602 CONDUIT    492.34     0  02:15      1.74    1.78    1.00
  YS02001602YS02001605 CONDUIT    492.71     0  02:15      1.74   10.43    1.00
  YS02001605YS02001607 CONDUIT    492.11     0  02:15      1.74    2.70    1.00
  YS02001607YS02001610 CONDUIT    494.36     0  02:15      0.63    0.47    1.00
  YS02001610YS02001613 CONDUIT    496.24     0  02:15      0.63    0.57    1.00
  YS02001613YS02001616 CONDUIT    496.22     0  02:15      0.64    0.43    1.00
  YS02001616YS02001619 CONDUIT    490.55     0  02:16      0.65    0.85    1.00
  YS02001619YS02001622 CONDUIT    934.84     0  02:20      1.19    1.38    1.00
  YS02001622YS02001625 CONDUIT    934.11     0  02:20      1.19    0.50    1.00
  YS02001625YS02001629 CONDUIT    934.46     0  02:20      1.19    0.44    1.00
  YS02001629YS02163301 CONDUIT    935.91     0  02:20      1.19    1.15    1.00
  YS02001633YS02163601 CONDUIT   1359.34     0  02:20      1.73    1.43    1.00
  YS02001641YS02001644 CONDUIT   1356.68     0  02:20      1.73    4.39    1.00
  YS02001644YS02001647 CONDUIT   1725.56     0  02:20      2.21    1.01    1.00
  YS02001647YS02001649 CONDUIT   1735.50     0  02:20      2.30    0.92    1.00
  YS02001649YS02001757 CONDUIT   1887.32     0  02:20      2.48    1.15    1.00
  YS02001652YS02001649 CONDUIT    635.80     0  02:25      0.81    0.32    1.00
  YS02001655YS02001652 CONDUIT    633.89     0  02:25      1.23    0.31    1.00
  YS02001658YS02001655 CONDUIT    632.29     0  02:25      1.84    0.27    1.00
  YS02001661YS02001658 CONDUIT    630.29     0  02:25      2.24    0.25    0.98
  YS02001664YS02001661 CONDUIT    779.80     0  02:24      2.21    0.24    0.68
  YS02001745YS02001748 CONDUIT    446.57     0  02:23      2.05    0.17    0.85
  YS02001748YS02001751 CONDUIT    377.35     0  02:24      1.61    0.19    1.00
  YS02001751YS02001754 CONDUIT    377.72     0  02:24      1.34    0.18    1.00
  YS02001754YS02001757 CONDUIT    377.68     0  02:24      0.48    0.15    1.00
  YS02001757CaochengTiaoxuchi CONDUIT   3115.60     0  02:24      3.97    1.35    1.00
  YS02001759YS02001757 CONDUIT   1221.51     0  02:25      1.56    0.87    1.00
  YS02001762YS02001759 CONDUIT    709.77     0  02:25      0.90    0.82    1.00
  YS02001765YS02001762 CONDUIT    710.01     0  02:25      0.90    0.67    1.00
  YS02001767YS02001765 CONDUIT    709.93     0  02:25      0.90    0.89    1.00
  YS02001770YS02001767 CONDUIT    709.24     0  02:25      0.90    2.81    1.00
  YS02001774YS02001770 CONDUIT    258.52     0  02:21      0.33    0.17    1.00
  YS02001779YS02001774 CONDUIT    259.47     0  02:21      0.33    0.13    1.00
  YS02001783YS02001784 CONDUIT    975.48     0  02:23      1.94    1.34    1.00
  YS02001784YS02001785 CONDUIT    976.17     0  02:23      1.94    2.27    1.00
  YS02001786YS02001788 CONDUIT    976.79     0  02:23      1.94    1.88    1.00
  YS02001788YS02001790 CONDUIT    977.22     0  02:23      1.94    0.72    1.00
  YS02001790YS02001791 CONDUIT    976.91     0  02:23      2.23    1.06    1.00
  YS02001791YS02001793 CONDUIT    978.03     0  02:23      4.25    0.42    1.00
  YS02001793JiankangQianchi CONDUIT    977.65     0  02:23      1.54    0.08    1.00
  YS02001882YS02001884 CONDUIT     32.99     0  02:18      0.12    0.04    1.00
  YS02001884YS02001887 CONDUIT     62.62     0  02:18      0.08    0.08    1.00
  YS02001887YS02001890 CONDUIT    552.23     0  02:25      0.70    0.95    1.00
  YS02001890YS02001895 CONDUIT    511.36     0  02:26      0.65    0.24    1.00
  YS02001895YS02001898 CONDUIT    512.47     0  02:26      0.65    0.89    1.00
  YS02001898YS02001901 CONDUIT    511.29     0  02:26      0.65    0.33    1.00
  YS02001901YS02001904 CONDUIT    511.86     0  02:25      0.65    0.79    1.00
  YS02001904YS02001907 CONDUIT    511.18     0  02:26      0.65    0.18    1.00
  YS02001907YS02006553 CONDUIT    685.00     0  02:34      0.76    0.81    1.00
  YS02001910YS02001907 CONDUIT    963.96     0  02:25      1.23    0.54    1.00
  YS02001915YS02001910 CONDUIT    963.13     0  02:26      1.23    0.48    1.00
  YS02001918YS02001915 CONDUIT    456.71     0  02:22      0.58    0.25    1.00
  YS02001920YS02001918 CONDUIT    454.63     0  02:22      0.63    0.44    1.00
  YS02001923YS02001920 CONDUIT    450.82     0  02:22      0.70    0.20    1.00
  YS02001926YS02001923 CONDUIT    424.97     0  02:22      0.94    0.61    1.00
  YS02001929YS02001926 CONDUIT    418.70     0  02:22      1.08    0.20    1.00
  YS02006553YS02006556 CONDUIT    677.05     0  02:34      0.86    0.58    1.00
  YS02006556YS02006558 CONDUIT    680.64     0  02:34      0.87    0.54    1.00
  YS02006558YS02006561 CONDUIT    975.43     0  02:24      3.45    2.16    1.00
  YS02006561YS02001783 CONDUIT    976.29     0  02:24      1.94    0.51    1.00
  YS02163301YS02001633 CONDUIT    936.64     0  02:20      1.19    0.88    1.00
  YS02163601YS02164001 CONDUIT   1358.51     0  02:20      1.73    1.20    1.00
  YS02164001YS02001641 CONDUIT   1356.56     0  02:20      1.73    1.85    1.00
  CC-R1                PUMP       683.00     0  00:00              1.00
  CC-R2                PUMP       683.00     0  00:00              1.00
  CC-S1                PUMP       200.00     0  00:00              1.00
  CC-S2                PUMP       200.00     0  00:00              1.00
  JK-R1                PUMP      1000.00     0  00:00              1.00
  JK-R2                PUMP      1000.00     0  00:00              1.00
  JK-S                 PUMP       300.00     0  00:00              1.00
  XR-1                 PUMP        95.00     0  00:00              1.00
  XR-2                 PUMP        95.00     0  00:00              1.00
  XR-3                 PUMP        95.00     0  00:00              1.00
  XR-4                 PUMP        95.00     0  00:00              1.00
  
  
  ***************************
  Flow Classification Summary
  ***************************
  
  -------------------------------------------------------------------------------------
                      Adjusted    ---------- Fraction of Time in Flow Class ---------- 
                       /Actual         Up    Down  Sub   Sup   Up    Down  Norm  Inlet 
  Conduit               Length    Dry  Dry   Dry   Crit  Crit  Crit  Crit  Ltd   Ctrl  
  -------------------------------------------------------------------------------------
  1                       1.00   0.00  0.00  0.00  0.00  1.00  0.00  0.00  0.17  0.00
  WS02001211WS02001212    1.00   0.00  0.00  0.00  1.00  0.00  0.00  0.00  0.00  0.00
  WS02001212WS02001213    1.00   0.00  0.00  0.00  0.37  0.00  0.63  0.00  0.00  0.00
  WS02001213WS02003059    1.00   0.00  0.00  0.00  0.99  0.00  0.00  0.00  0.00  0.00
  WS02003059WS02003060    1.00   0.00  0.00  0.00  1.00  0.00  0.00  0.00  0.00  0.00
  WS02003060WS02003069    1.00   0.00  0.00  0.00  0.99  0.01  0.00  0.00  0.00  0.00
  WS02003066WSF200        1.00   0.02  0.10  0.00  0.00  0.88  0.00  0.00  0.87  0.00
  WS02003067WS02003066    1.00   0.10  0.02  0.00  0.89  0.00  0.00  0.00  0.00  0.00
  WS02003069WS02003072    1.00   0.00  0.00  0.00  0.99  0.01  0.00  0.00  0.00  0.00
  WS02003072WS02003073    1.00   0.00  0.00  0.00  0.00  0.00  0.00  1.00  0.00  0.00
  WS02004138WS02004139    1.00   0.00  0.00  0.00  0.99  0.01  0.00  0.00  1.00  0.00
  WS02004139WS02001211    1.00   0.00  0.00  0.00  1.00  0.00  0.00  0.00  0.00  0.00
  WS02004401WS02004402    1.00   0.02  0.00  0.00  0.98  0.00  0.00  0.00  0.00  0.00
  WS02004402WS02004403    1.00   0.02  0.00  0.00  0.98  0.00  0.00  0.00  0.00  0.00
  WS02004403WS02004404    1.00   0.00  0.03  0.00  0.97  0.00  0.00  0.00  0.00  0.00
  WS02004404WS02004405    1.00   0.00  0.00  0.00  1.00  0.00  0.00  0.00  0.00  0.00
  WS02004405WS02004406    1.00   0.00  0.00  0.00  1.00  0.00  0.00  0.00  0.00  0.00
  WS02004406WS02004407    1.00   0.00  0.05  0.00  0.95  0.00  0.00  0.00  0.00  0.00
  WS02004407WS02004409    1.00   0.05  0.00  0.00  0.94  0.01  0.00  0.00  0.94  0.00
  WS02004409WS02004410    1.00   0.05  0.00  0.00  0.95  0.00  0.00  0.00  0.02  0.00
  WS02004410WS02004411    1.00   0.05  0.00  0.00  0.95  0.00  0.00  0.00  0.00  0.00
  WS02004411WS02004412    1.00   0.05  0.00  0.00  0.95  0.00  0.00  0.00  0.00  0.00
  WS02004412WS02004413    1.00   0.05  0.00  0.00  0.94  0.00  0.00  0.00  0.01  0.00
  WS02004413WS02003067    1.00   0.06  0.04  0.00  0.00  0.00  0.90  0.00  0.00  0.00
  WS02006109WS02006110    1.00   0.00  0.01  0.00  0.98  0.00  0.01  0.00  0.00  0.00
  WS02006110WS02006113    1.00   0.01  0.01  0.00  0.98  0.00  0.00  0.00  0.00  0.00
  WS02006111WS02006112    1.00   0.02  0.00  0.00  0.98  0.00  0.00  0.00  0.98  0.00
  WS02006112WS02006115    1.00   0.02  0.00  0.00  0.97  0.00  0.00  0.00  0.00  0.00
  WS02006113WS02006111    1.00   0.02  0.00  0.00  0.00  0.98  0.00  0.00  0.11  0.00
  WS02006115WS02006116    1.00   0.02  0.00  0.00  0.97  0.00  0.00  0.01  0.00  0.00
  WS02006116WS02004401    1.00   0.02  0.00  0.00  0.98  0.00  0.00  0.00  0.00  0.00
  WS02006228WS02006109    1.00   0.00  0.00  0.00  1.00  0.00  0.00  0.00  0.00  0.00
  WS02006229WS02006228    1.00   0.00  0.00  0.00  0.99  0.00  0.00  0.01  0.00  0.00
  WS02006230WS02006229    1.00   0.00  0.00  0.00  0.99  0.00  0.00  0.01  0.00  0.00
  WS02006231WS02006230    1.00   0.00  0.00  0.00  0.25  0.00  0.75  0.00  0.00  0.00
  WS02006232WS02006231    1.00   0.00  0.00  0.00  0.99  0.00  0.01  0.00  0.00  0.00
  WS02006234WS02006232    1.00   0.00  0.00  0.00  1.00  0.00  0.00  0.00  0.52  0.00
  WS02006235WS02006234    1.00   0.00  0.00  0.00  0.44  0.00  0.56  0.00  0.00  0.00
  WS02006238WS02006235    1.00   0.00  0.00  0.00  1.00  0.00  0.00  0.00  0.00  0.00
  WS02006239WS02006238    1.00   0.00  0.00  0.00  1.00  0.00  0.00  0.00  0.61  0.00
  WS02006240WS02006239    1.00   0.00  0.00  0.00  0.35  0.00  0.00  0.65  0.01  0.00
  WS02006242WS02006240    1.00   0.00  0.00  0.00  0.99  0.00  0.01  0.00  0.00  0.00
  WS02006243WS02006242    1.00   0.00  0.00  0.00  0.99  0.00  0.00  0.01  0.70  0.00
  WS02006245WS02006243    1.00   0.00  0.00  0.00  0.40  0.00  0.00  0.59  0.00  0.00
  WS02006247WS02006245    1.00   0.00  0.00  0.00  0.99  0.00  0.00  0.01  0.00  0.00
  WS02006248WS02006247    1.00   0.00  0.00  0.00  0.99  0.00  0.00  0.01  0.12  0.00
  WS02006249WS02006248    1.00   0.00  0.00  0.00  0.30  0.00  0.70  0.00  0.00  0.00
  WS02006251WS02006249    1.00   0.00  0.00  0.00  1.00  0.00  0.00  0.00  0.71  0.00
  WS02006252WS02006251    1.00   0.00  0.73  0.00  0.00  0.00  0.27  0.00  0.00  0.00
  WS02006256WS02006235    1.00   0.00  0.00  0.00  1.00  0.00  0.00  0.00  0.00  0.00
  WSF200WS02003060        1.00   0.00  0.02  0.00  0.98  0.00  0.00  0.00  0.65  0.00
  YS02001580YS02001583    1.00   0.28  0.55  0.00  0.17  0.00  0.00  0.00  0.64  0.00
  YS02001583YS02001586    1.00   0.48  0.30  0.00  0.22  0.00  0.00  0.00  0.64  0.00
  YS02001586YS02001590    1.00   0.13  0.00  0.00  0.40  0.04  0.00  0.43  0.36  0.00
  YS02001590YS02001593    1.00   0.13  0.01  0.00  0.11  0.00  0.76  0.00  0.00  0.00
  YS02001593YS02001596    1.00   0.13  0.00  0.00  0.74  0.00  0.00  0.12  0.63  0.00
  YS02001596YS02001600    1.00   0.14  0.00  0.00  0.78  0.01  0.00  0.07  0.03  0.00
  YS02001600YS02001601    1.00   0.13  0.01  0.00  0.86  0.00  0.00  0.00  0.05  0.00
  YS02001601YS02001602    1.00   0.13  0.01  0.00  0.87  0.00  0.00  0.00  0.00  0.00
  YS02001602YS02001605    1.00   0.13  0.00  0.00  0.86  0.00  0.00  0.00  0.00  0.00
  YS02001605YS02001607    1.00   0.14  0.00  0.00  0.86  0.00  0.00  0.00  0.00  0.00
  YS02001607YS02001610    1.00   0.13  0.01  0.00  0.86  0.00  0.00  0.00  0.01  0.00
  YS02001610YS02001613    1.00   0.13  0.00  0.00  0.87  0.00  0.00  0.00  0.00  0.00
  YS02001613YS02001616    1.00   0.13  0.00  0.00  0.87  0.00  0.00  0.00  0.00  0.00
  YS02001616YS02001619    1.00   0.13  0.00  0.00  0.87  0.00  0.00  0.00  0.00  0.00
  YS02001619YS02001622    1.00   0.13  0.00  0.00  0.87  0.00  0.00  0.00  0.00  0.00
  YS02001622YS02001625    1.00   0.13  0.00  0.00  0.87  0.00  0.00  0.00  0.04  0.00
  YS02001625YS02001629    1.00   0.13  0.05  0.00  0.75  0.00  0.07  0.00  0.00  0.00
  YS02001629YS02163301    1.00   0.15  0.01  0.00  0.84  0.00  0.00  0.00  0.00  0.00
  YS02001633YS02163601    1.00   0.00  0.01  0.00  0.99  0.00  0.00  0.00  0.15  0.00
  YS02001641YS02001644    1.00   0.00  0.01  0.00  0.99  0.00  0.00  0.00  0.00  0.00
  YS02001644YS02001647    1.00   0.00  0.17  0.00  0.83  0.00  0.00  0.00  0.00  0.00
  YS02001647YS02001649    1.00   0.00  0.17  0.00  0.76  0.06  0.00  0.00  0.02  0.00
  YS02001649YS02001757    1.00   0.00  0.00  0.00  0.93  0.07  0.00  0.00  0.19  0.00
  YS02001652YS02001649    1.00   0.00  0.00  0.00  0.96  0.04  0.00  0.00  0.19  0.00
  YS02001655YS02001652    1.00   0.00  0.00  0.00  0.75  0.01  0.00  0.24  0.03  0.00
  YS02001658YS02001655    1.00   0.00  0.14  0.00  0.72  0.14  0.00  0.00  0.09  0.00
  YS02001661YS02001658    1.00   0.14  0.00  0.00  0.71  0.15  0.00  0.00  0.07  0.00
  YS02001664YS02001661    1.00   0.13  0.00  0.00  0.81  0.07  0.00  0.00  0.87  0.00
  YS02001745YS02001748    1.00   0.00  0.00  0.00  0.71  0.00  0.00  0.29  0.00  0.00
  YS02001748YS02001751    1.00   0.00  0.00  0.00  0.85  0.15  0.00  0.00  0.13  0.00
  YS02001751YS02001754    1.00   0.00  0.00  0.00  0.73  0.01  0.00  0.27  0.01  0.00
  YS02001754YS02001757    1.00   0.00  0.00  0.00  1.00  0.00  0.00  0.00  0.26  0.00
  YS02001757CaochengTiaoxuchi    1.00   0.00  0.00  0.00  0.98  0.02  0.00  0.00  0.24  0.00
  YS02001759YS02001757    1.00   0.00  0.00  0.00  1.00  0.00  0.00  0.00  0.08  0.00
  YS02001762YS02001759    1.00   0.00  0.00  0.00  1.00  0.00  0.00  0.00  0.04  0.00
  YS02001765YS02001762    1.00   0.00  0.00  0.00  1.00  0.00  0.00  0.00  0.16  0.00
  YS02001767YS02001765    1.00   0.00  0.00  0.00  1.00  0.00  0.00  0.00  0.00  0.00
  YS02001770YS02001767    1.00   0.00  0.00  0.00  1.00  0.00  0.00  0.00  0.00  0.00
  YS02001774YS02001770    1.00   0.00  0.13  0.00  0.87  0.00  0.00  0.00  0.03  0.00
  YS02001779YS02001774    1.00   0.00  0.00  0.00  1.00  0.00  0.00  0.00  0.19  0.00
  YS02001783YS02001784    1.00   0.00  0.18  0.00  0.82  0.00  0.00  0.00  0.00  0.00
  YS02001784YS02001785    1.00   0.00  0.00  0.00  1.00  0.00  0.00  0.00  0.17  0.00
  YS02001786YS02001788    1.00   0.00  0.00  0.00  0.94  0.06  0.00  0.00  0.00  0.00
  YS02001788YS02001790    1.00   0.00  0.00  0.00  0.93  0.07  0.00  0.00  0.19  0.00
  YS02001790YS02001791    1.00   0.00  0.00  0.00  0.76  0.24  0.00  0.00  0.05  0.00
  YS02001791YS02001793    1.00   0.00  0.00  0.00  0.75  0.25  0.00  0.00  0.01  0.00
  YS02001793JiankangQianchi    1.00   0.00  0.00  0.00  0.93  0.06  0.00  0.00  0.22  0.00
  YS02001882YS02001884    1.00   0.15  0.01  0.00  0.84  0.00  0.00  0.00  0.00  0.00
  YS02001884YS02001887    1.00   0.06  0.05  0.00  0.89  0.00  0.00  0.00  0.00  0.00
  YS02001887YS02001890    1.00   0.00  0.00  0.00  0.97  0.00  0.03  0.00  0.00  0.00
  YS02001890YS02001895    1.00   0.00  0.16  0.00  0.83  0.00  0.00  0.00  0.00  0.00
  YS02001895YS02001898    1.00   0.17  0.00  0.00  0.81  0.00  0.02  0.00  0.00  0.00
  YS02001898YS02001901    1.00   0.17  0.00  0.00  0.83  0.00  0.00  0.00  0.01  0.00
  YS02001901YS02001904    1.00   0.17  0.00  0.00  0.83  0.00  0.00  0.00  0.00  0.00
  YS02001904YS02001907    1.00   0.00  0.16  0.00  0.83  0.00  0.00  0.00  0.00  0.00
  YS02001907YS02006553    1.00   0.00  0.02  0.00  0.98  0.00  0.00  0.00  0.00  0.00
  YS02001910YS02001907    1.00   0.00  0.00  0.00  0.97  0.00  0.00  0.03  0.12  0.00
  YS02001915YS02001910    1.00   0.00  0.00  0.00  0.97  0.03  0.00  0.00  0.16  0.00
  YS02001918YS02001915    1.00   0.00  0.01  0.00  0.98  0.02  0.00  0.00  0.77  0.00
  YS02001920YS02001918    1.00   0.00  0.01  0.00  0.99  0.00  0.00  0.00  0.00  0.00
  YS02001923YS02001920    1.00   0.00  0.00  0.00  1.00  0.00  0.00  0.00  0.94  0.00
  YS02001926YS02001923    1.00   0.00  0.07  0.00  0.04  0.00  0.88  0.00  0.00  0.00
  YS02001929YS02001926    1.00   0.00  0.13  0.00  0.87  0.00  0.00  0.00  0.84  0.00
  YS02006553YS02006556    1.00   0.01  0.00  0.00  0.99  0.00  0.00  0.00  0.03  0.00
  YS02006556YS02006558    1.00   0.00  0.00  0.00  1.00  0.00  0.00  0.00  0.00  0.00
  YS02006558YS02006561    1.00   0.18  0.00  0.00  0.06  0.76  0.00  0.00  0.19  0.00
  YS02006561YS02001783    1.00   0.18  0.00  0.00  0.74  0.08  0.00  0.00  0.73  0.00
  YS02163301YS02001633    1.00   0.00  0.15  0.00  0.85  0.00  0.00  0.00  0.00  0.00
  YS02163601YS02164001    1.00   0.00  0.08  0.00  0.92  0.00  0.00  0.00  0.00  0.00
  YS02164001YS02001641    1.00   0.01  0.07  0.00  0.92  0.00  0.00  0.00  0.05  0.00
  
  
  *************************
  Conduit Surcharge Summary
  *************************
  
  ----------------------------------------------------------------------------
                                                           Hours        Hours 
                         --------- Hours Full --------   Above Full   Capacity
  Conduit                Both Ends  Upstream  Dnstream   Normal Flow   Limited
  ----------------------------------------------------------------------------
  WS02003072WS02003073        0.01      0.01      0.01      2.39         0.01
  WS02004404WS02004405        0.01      0.01      0.01      2.24         0.01
  WS02006109WS02006110        0.01      0.01      1.91      0.01         0.01
  WS02006110WS02006113        0.01      0.01      1.88      0.01         0.01
  WS02006111WS02006112        0.01      0.01      1.95      0.01         0.01
  WS02006228WS02006109        1.84      1.91      1.84      2.06         1.84
  WS02006229WS02006228        1.83      1.85      1.83      2.00         1.83
  WS02006230WS02006229        1.95      1.98      1.95      2.51         1.95
  WS02006231WS02006230        0.01      0.01      0.01      2.36         0.01
  WS02006232WS02006231        0.01      0.01      1.91      0.01         0.01
  WS02006234WS02006232        1.80      1.80      1.91      0.01         0.01
  WS02006235WS02006234        0.01      0.01      1.85      2.28         0.01
  WS02006238WS02006235        1.86      1.86      1.92      0.01         0.01
  WS02006239WS02006238        1.88      1.91      1.88      2.04         1.88
  WS02006240WS02006239        1.86      1.87      1.86      2.06         1.86
  WS02006242WS02006240        1.86      1.86      1.97      2.11         0.01
  WS02006243WS02006242        1.89      1.89      1.94      0.01         0.01
  WS02006245WS02006243        1.88      1.89      1.88      2.10         1.88
  WS02006247WS02006245        1.88      1.91      1.88      2.17         1.88
  WS02006248WS02006247        1.89      1.89      1.90      0.01         0.01
  WS02006249WS02006248        1.88      1.88      1.90      2.17         0.01
  WS02006251WS02006249        1.89      1.90      1.89      2.15         1.89
  WS02006252WS02006251        2.17      2.17      2.17      2.17         0.01
  WS02006256WS02006235        2.32      2.32      3.08      0.02         0.01
  YS02001580YS02001583        0.40      0.41      0.45      0.01         0.01
  YS02001583YS02001586        0.41      0.41      0.56      0.01         0.01
  YS02001586YS02001590        0.57      0.57      0.64      0.01         0.01
  YS02001590YS02001593        0.65      0.65      0.67      0.64         0.01
  YS02001593YS02001596        0.66      0.66      0.82      0.01         0.01
  YS02001596YS02001600        0.90      0.90      1.14      0.01         0.01
  YS02001600YS02001601        5.02      5.02      6.12      0.01         0.01
  YS02001601YS02001602        6.04      6.04      6.14      0.88         0.01
  YS02001602YS02001605        6.00      6.00      6.04      2.13         0.15
  YS02001605YS02001607        5.96      6.00      5.96      1.16         1.00
  YS02001607YS02001610        0.82      0.82      0.94      0.01         0.01
  YS02001610YS02001613        0.82      0.82      0.94      0.01         0.01
  YS02001613YS02001616        0.76      0.76      0.82      0.01         0.01
  YS02001616YS02001619        0.74      0.74      0.76      0.01         0.01
  YS02001619YS02001622        0.74      0.74      0.76      0.55         0.46
  YS02001622YS02001625        0.76      0.76      5.79      0.01         0.01
  YS02001625YS02001629        0.69      0.69      5.79      0.01         0.01
  YS02001629YS02163301        5.79      5.79      5.79      0.08         0.10
  YS02001633YS02163601        5.80      5.80      5.81      0.21         0.21
  YS02001641YS02001644        5.74      5.76      5.74      1.22         0.89
  YS02001644YS02001647        5.66      5.66      5.74      0.01         0.01
  YS02001647YS02001649        5.66      5.66      5.67      0.01         0.01
  YS02001649YS02001757        5.67      5.67      5.67      0.10         0.05
  YS02001652YS02001649        5.65      5.65      5.67      0.01         0.01
  YS02001655YS02001652        0.39      0.39      5.64      0.01         0.01
  YS02001658YS02001655        0.10      0.10      0.40      0.01         0.01
  YS02001661YS02001658        0.01      0.01      0.10      0.01         0.01
  YS02001664YS02001661        0.01      0.01      0.01      0.01         0.01
  YS02001745YS02001748        0.01      0.01      0.04      0.01         0.01
  YS02001748YS02001751        0.08      0.08      0.18      0.01         0.01
  YS02001751YS02001754        0.18      0.18      5.64      0.01         0.01
  YS02001754YS02001757        5.64      5.64      5.67      0.01         0.01
  YS02001757CaochengTiaoxuchi        5.67      5.67      5.69      0.22         0.19
  YS02001759YS02001757        5.66      5.66      5.67      0.01         0.01
  YS02001762YS02001759        5.65      5.65      5.66      0.01         0.01
  YS02001765YS02001762        5.65      5.65      5.65      0.01         0.01
  YS02001767YS02001765        5.65      5.65      5.65      0.01         0.02
  YS02001770YS02001767        5.65      5.65      5.65      0.34         0.40
  YS02001774YS02001770        5.65      5.65      5.65      0.01         0.01
  YS02001779YS02001774        5.49      5.49      5.65      0.01         0.01
  YS02001783YS02001784        0.59      0.59      0.60      0.44         0.45
  YS02001784YS02001785        0.59      0.60      0.59      0.73         0.59
  YS02001786YS02001788        0.59      0.59      0.59      0.63         0.59
  YS02001788YS02001790        0.59      0.59      5.92      0.01         0.01
  YS02001790YS02001791        5.92      5.92      5.93      0.24         0.24
  YS02001791YS02001793        5.93      5.93      5.98      0.01         0.01
  YS02001793JiankangQianchi        5.97      5.97      6.27      0.01         0.01
  YS02001882YS02001884        0.35      0.35      0.36      0.01         0.01
  YS02001884YS02001887        0.38      0.38      0.39      0.01         0.01
  YS02001887YS02001890        0.40      0.40      0.41      0.01         0.01
  YS02001890YS02001895        0.34      0.34      0.43      0.01         0.01
  YS02001895YS02001898        0.33      0.33      0.34      0.01         0.01
  YS02001898YS02001901        0.34      0.34      0.38      0.01         0.01
  YS02001901YS02001904        0.37      0.37      0.38      0.01         0.01
  YS02001904YS02001907        0.37      0.37      0.62      0.01         0.01
  YS02001907YS02006553        0.75      0.75      0.80      0.01         0.01
  YS02001910YS02001907        0.43      0.43      0.60      0.01         0.01
  YS02001915YS02001910        0.35      0.35      0.43      0.01         0.01
  YS02001918YS02001915        0.26      0.26      0.35      0.01         0.01
  YS02001920YS02001918        0.26      0.26      0.27      0.01         0.01
  YS02001923YS02001920        0.21      0.21      0.27      0.01         0.01
  YS02001926YS02001923        0.01      0.01      0.01      0.01         0.01
  YS02001929YS02001926        0.01      0.01      0.01      0.01         0.01
  YS02006553YS02006556        0.52      0.52      0.62      0.01         0.01
  YS02006556YS02006558        0.56      0.56      0.63      0.01         0.01
  YS02006558YS02006561        0.38      0.50      0.38      0.69         0.38
  YS02006561YS02001783        0.30      0.30      0.59      0.01         0.01
  YS02163301YS02001633        5.79      5.79      5.81      0.01         0.01
  YS02163601YS02164001        5.76      5.76      5.81      0.10         0.01
  YS02164001YS02001641        5.76      5.76      5.76      0.53         0.47
  
  
  ***************
  Pumping Summary
  ***************
  
  ---------------------------------------------------------------------------------------------------------
                                                  Min       Avg       Max     Total     Power    % Time Off
                        Percent   Number of      Flow      Flow      Flow    Volume     Usage    Pump Curve
  Pump                 Utilized   Start-Ups       LPS       LPS       LPS  10^6 ltr     Kw-hr    Low   High
  ---------------------------------------------------------------------------------------------------------
  CC-R1                    1.06           1      0.00    683.00    683.00     0.208      3.51    0.0  100.0
  CC-R2                    1.06           1      0.00    683.00    683.00     0.208      3.51    0.0  100.0
  CC-S1                   27.18           2      0.00    200.00    200.00     1.566      8.26    0.0   36.7
  CC-S2                   27.18           2      0.00    200.00    200.00     1.566      8.26    0.0   36.7
  JK-R1                    0.97           2      0.00    347.46   1000.00     0.078      0.47    0.0    0.0
  JK-R2                    0.97           2      0.00    347.46   1000.00     0.078      0.47    0.0    0.0
  JK-S                     0.97           2      0.00    104.30    300.00     0.023      0.44    0.0    0.0
  XR-1                   100.00           1      0.00     95.00     95.00     2.736     68.18    0.0    0.0
  XR-2                   100.00           1      0.00     95.00     95.00     2.736     68.18    0.0    0.0
  XR-3                   100.00           1      0.00     95.00     95.00     2.736     68.18    0.0    0.0
  XR-4                   100.00           1      0.00     95.00     95.00     2.736     68.18    0.0    0.0
  

  Analysis begun on:  Wed Nov  5 16:29:38 2025
  Analysis ended on:  Wed Nov  5 16:29:40 2025
  Total elapsed time: 00:00:02