
  EPA STORM WATER MANAGEMENT MODEL - VERSION 5.2 (Build 5.2.4)
  PYSWMM TOOLKIT API - VERSION v1.0 (2023-11-27)
  ------------------------------------------------------------

  WARNING 04: minimum elevation drop used for Conduit WS02004404WS02004405
  WARNING 03: negative offset ignored for Link YS02001904YS02001907
  
  ****************
  Analysis Options
  ****************
  Flow Units ............... LPS
  Process Models:
    Rainfall/Runoff ........ YES
    RDII ................... NO
    Snowmelt ............... NO
    Groundwater ............ NO
    Flow Routing ........... YES
    Ponding Allowed ........ NO
    Water Quality .......... NO
  Infiltration Method ...... HORTON
  Flow Routing Method ...... DYNWAVE
  Surcharge Method ......... EXTRAN
  Starting Date ............ 08/28/2015 08:00:00
  Ending Date .............. 08/28/2015 16:00:00
  Antecedent Dry Days ...... 8.0
  Report Time Step ......... 00:01:00
  Wet Time Step ............ 00:01:00
  Dry Time Step ............ 00:01:00
  Routing Time Step ........ 30.00 sec
  Variable Time Step ....... YES
  Maximum Trials ........... 8
  Number of Threads ........ 4
  Head Tolerance ........... 0.001500 m
  
  
  **************************        Volume         Depth
  Runoff Quantity Continuity     hectare-m            mm
  **************************     ---------       -------
  Initial LID Storage ......         0.049         1.488
  Total Precipitation ......         1.659        50.008
  Evaporation Loss .........         0.000         0.000
  Infiltration Loss ........         0.073         2.197
  Surface Runoff ...........         1.211        36.507
  Final Storage ............         0.425        12.821
  Continuity Error (%) .....        -0.058
  
  
  **************************        Volume        Volume
  Flow Routing Continuity        hectare-m      10^6 ltr
  **************************     ---------     ---------
  Dry Weather Inflow .......         0.602         6.020
  Wet Weather Inflow .......         1.211        12.111
  Groundwater Inflow .......         0.000         0.000
  RDII Inflow ..............         0.000         0.000
  External Inflow ..........         0.105         1.045
  External Outflow .........         1.495        14.951
  Flooding Loss ............         0.420         4.196
  Evaporation Loss .........         0.000         0.000
  Exfiltration Loss ........         0.000         0.000
  Initial Stored Volume ....         0.303         3.031
  Final Stored Volume ......         0.765         7.647
  Continuity Error (%) .....       -20.656
  
  
  *************************
  Highest Continuity Errors
  *************************
  Node YS02001774 (31.53%)
  Node YS02001583 (-11.26%)
  Node WS02006256 (-5.74%)
  Node YS02001884 (4.67%)
  Node YS02001754 (4.14%)
  
  
  ***************************
  Time-Step Critical Elements
  ***************************
  Link WS02001212WS02001213 (29.57%)
  Link WS02006235WS02006234 (18.61%)
  Link WS02006238WS02006235 (15.44%)
  Link WS02006252WS02006251 (14.53%)
  Link WS02003066WSF200 (4.92%)
  
  
  ********************************
  Highest Flow Instability Indexes
  ********************************
  Link WS02006113WS02006111 (37)
  Link WS02006111WS02006112 (28)
  Link WS02006238WS02006235 (24)
  Link WS02006256WS02006235 (21)
  Link WS02006110WS02006113 (20)
  
  
  *********************************
  Most Frequent Nonconverging Nodes
  *********************************
  Node CC-1 (8.17%)
  Node CC-2 (8.17%)
  Node JK-1 (8.17%)
  Node JK-2 (8.17%)
  Node WSC (8.17%)
  
  
  *************************
  Routing Time Step Summary
  *************************
  Minimum Time Step           :     0.06 sec
  Average Time Step           :     3.39 sec
  Maximum Time Step           :     6.46 sec
  % of Time in Steady State   :     0.00
  Average Iterations per Step :     2.95
  % of Steps Not Converging   :     8.17
  Time Step Frequencies       :
     30.000 - 13.228 sec      :     0.00 %
     13.228 -  5.833 sec      :    28.49 %
      5.833 -  2.572 sec      :    35.47 %
      2.572 -  1.134 sec      :    16.00 %
      1.134 -  0.500 sec      :    20.04 %
  
  
  ***************************
  Subcatchment Runoff Summary
  ***************************
  
  ------------------------------------------------------------------------------------------------------------------------------
                            Total      Total      Total      Total     Imperv       Perv      Total       Total     Peak  Runoff
                           Precip      Runon       Evap      Infil     Runoff     Runoff     Runoff      Runoff   Runoff   Coeff
  Subcatchment                 mm         mm         mm         mm         mm         mm         mm    10^6 ltr      LPS
  ------------------------------------------------------------------------------------------------------------------------------
  sub60                     50.01       0.00       0.00       1.32      33.04       3.32      36.36        0.48   370.39   0.727
  sub61                     50.01       0.00       0.00       2.02      33.01       4.94      37.95        0.70   538.11   0.759
  sub62                     50.01       0.00       0.00       0.89      35.19       2.25      37.44        1.03   736.48   0.749
  sub63                     50.01       0.00       0.00       3.69      28.27       8.19      36.46        0.83   598.47   0.729
  sub64                     50.01       0.00       0.00       1.77      32.19       4.08      36.26        0.87   589.77   0.725
  sub65                     50.01       0.00       0.00       1.62      34.74       3.72      38.46        1.06   683.07   0.769
  sub66                     50.01       0.00       0.00       4.30      27.33       7.20      34.52        1.61   856.68   0.690
  sub67                     50.01       0.00       0.00       0.89      36.08       2.33      38.41        0.71   583.95   0.768
  sub68                     50.01       0.00       0.00       1.55      31.86       3.79      35.65        0.98   734.47   0.713
  sub69                     50.01       0.00       0.00       1.39      33.61       4.55      38.16        1.41   887.14   0.763
  sub70                     50.01       0.00       0.00       4.69      26.92       9.23      36.14        1.04   493.54   0.723
  sub71                     50.01       0.00       0.00       0.82      31.96       2.04      34.00        0.89   600.07   0.680
  sub72                     50.01       0.00       0.00       0.78      34.52       1.89      36.41        0.50   304.39   0.728
  

  ***********************
  LID Performance Summary
  ***********************

  --------------------------------------------------------------------------------------------------------------------
                                         Total      Evap     Infil   Surface    Drain    Initial     Final  Continuity
                                        Inflow      Loss      Loss   Outflow   Outflow   Storage   Storage       Error
  Subcatchment      LID Control             mm        mm        mm        mm        mm        mm        mm           %
  --------------------------------------------------------------------------------------------------------------------
  sub60             GreenRoof            50.01      0.00      0.00      0.00      0.00      7.05     57.15       -0.16
  sub61             GreenRoof            50.01      0.00      0.00      0.00      0.00      7.05     57.15       -0.16
  sub62             GreenRoof            50.01      0.00      0.00      0.00      0.00      7.05     57.15       -0.16
  sub63             GreenRoof            50.01      0.00      0.00      0.00      0.00      7.05     57.15       -0.16
  sub64             GreenRoof            50.01      0.00      0.00      0.00      0.00      7.05     57.15       -0.16
  sub65             GreenRoof            50.01      0.00      0.00      0.00      0.00      7.05     57.15       -0.16
  sub66             GreenRoof            50.01      0.00      0.00      0.00      0.00      7.05     57.15       -0.16
  sub67             GreenRoof            50.01      0.00      0.00      0.00      0.00      7.05     57.15       -0.16
  sub68             GreenRoof            50.01      0.00      0.00      0.00      0.00      7.05     57.15       -0.16
  sub69             GreenRoof            50.01      0.00      0.00      0.00      0.00      7.05     57.15       -0.16
  sub70             GreenRoof            50.01      0.00      0.00      0.00      0.00      7.05     57.15       -0.16
  sub71             GreenRoof            50.01      0.00      0.00      0.00      0.00      7.05     57.15       -0.16
  sub72             GreenRoof            50.01      0.00      0.00      0.00      0.00      7.05     57.15       -0.16
  
  ******************
  Node Depth Summary
  ******************
  
  ---------------------------------------------------------------------------------
                                 Average  Maximum  Maximum  Time of Max    Reported
                                   Depth    Depth      HGL   Occurrence   Max Depth
  Node                 Type       Meters   Meters   Meters  days hr:min      Meters
  ---------------------------------------------------------------------------------
  WS02001211           JUNCTION     0.76     0.78     5.62     0  03:06        0.78
  WS02001212           JUNCTION     0.46     0.49     5.55     0  03:09        0.49
  WS02001213           JUNCTION     0.68     0.73     5.49     0  03:04        0.73
  WS02003059           JUNCTION     0.72     0.78     5.47     0  03:04        0.78
  WS02003060           JUNCTION     0.37     0.47     5.41     0  03:03        0.47
  WS02003066           JUNCTION     0.15     0.27     5.82     0  03:02        0.27
  WS02003067           JUNCTION     0.41     0.65     5.97     0  02:30        0.65
  WS02003069           JUNCTION     0.41     0.54     5.12     0  03:03        0.54
  WS02003072           JUNCTION     0.48     0.60     4.97     0  03:04        0.60
  WS02003073           JUNCTION     0.29     0.37     4.43     0  03:05        0.37
  WS02004138           JUNCTION     0.19     0.20     7.45     0  00:00        0.19
  WS02004139           JUNCTION     0.71     0.73     5.64     0  03:06        0.73
  WS02004401           JUNCTION     0.50     0.75     6.75     0  03:22        0.75
  WS02004402           JUNCTION     0.53     0.78     6.74     0  02:08        0.78
  WS02004403           JUNCTION     0.55     0.80     6.73     0  03:23        0.80
  WS02004404           JUNCTION     0.63     0.88     6.73     0  03:23        0.88
  WS02004405           JUNCTION     0.63     0.87     6.72     0  03:23        0.87
  WS02004406           JUNCTION     0.64     0.88     6.71     0  02:09        0.88
  WS02004407           JUNCTION     0.13     0.26     6.57     0  02:09        0.26
  WS02004409           JUNCTION     0.28     0.57     6.34     0  02:28        0.57
  WS02004410           JUNCTION     0.31     0.59     6.31     0  02:29        0.59
  WS02004411           JUNCTION     0.33     0.61     6.29     0  02:29        0.61
  WS02004412           JUNCTION     0.36     0.62     6.26     0  03:01        0.62
  WS02004413           JUNCTION     0.51     0.79     6.26     0  03:02        0.79
  WS02006109           JUNCTION     0.56     0.83     7.45     0  02:07        0.83
  WS02006110           JUNCTION     0.57     0.82     7.41     0  02:07        0.82
  WS02006111           JUNCTION     0.14     0.25     6.96     0  02:01        0.25
  WS02006112           JUNCTION     0.64     0.93     6.82     0  03:22        0.93
  WS02006113           JUNCTION     0.21     0.39     7.29     0  03:20        0.39
  WS02006115           JUNCTION     0.38     0.65     6.78     0  03:22        0.64
  WS02006116           JUNCTION     0.46     0.73     6.77     0  02:08        0.73
  WS02006228           JUNCTION     0.54     0.84     7.49     0  01:59        0.84
  WS02006229           JUNCTION     0.51     0.82     7.52     0  01:59        0.82
  WS02006230           JUNCTION     0.50     0.86     7.60     0  02:06        0.86
  WS02006231           JUNCTION     0.30     0.60     7.72     0  01:59        0.60
  WS02006232           JUNCTION     0.42     0.75     7.79     0  02:27        0.75
  WS02006234           JUNCTION     0.34     0.71     7.87     0  02:05        0.71
  WS02006235           JUNCTION     0.37     0.77     7.93     0  02:01        0.76
  WS02006238           JUNCTION     0.40     0.81     7.95     0  02:05        0.80
  WS02006239           JUNCTION     0.37     0.81     8.02     0  01:57        0.80
  WS02006240           JUNCTION     0.36     0.79     8.08     0  02:12        0.79
  WS02006242           JUNCTION     0.43     0.91     8.17     0  02:12        0.90
  WS02006243           JUNCTION     0.37     0.84     8.26     0  02:01        0.84
  WS02006245           JUNCTION     0.37     0.86     8.34     0  02:15        0.85
  WS02006247           JUNCTION     0.39     0.89     8.39     0  01:56        0.89
  WS02006248           JUNCTION     0.37     0.86     8.44     0  02:01        0.85
  WS02006249           JUNCTION     0.40     0.90     8.49     0  02:02        0.89
  WS02006251           JUNCTION     0.40     0.91     8.58     0  02:05        0.91
  WS02006252           JUNCTION     0.28     1.50     9.74     0  00:00        0.59
  WS02006256           JUNCTION     0.61     2.35     9.28     0  00:00        2.35
  WSF200               JUNCTION     0.11     0.25     5.48     0  02:30        0.25
  YS02001580           JUNCTION     0.06     1.05     9.59     0  01:58        0.77
  YS02001583           JUNCTION     0.09     1.14     9.64     0  01:58        0.82
  YS02001586           JUNCTION     0.15     1.13     9.30     0  01:58        1.13
  YS02001590           JUNCTION     0.24     1.40     9.26     0  01:58        1.37
  YS02001593           JUNCTION     0.18     1.36     9.22     0  01:58        1.28
  YS02001596           JUNCTION     0.32     1.70     9.12     0  01:58        1.66
  YS02001600           JUNCTION     0.55     1.87     9.00     0  01:58        1.86
  YS02001601           JUNCTION     0.80     2.06     8.90     0  01:57        2.06
  YS02001602           JUNCTION     0.72     1.87     8.77     0  01:58        1.87
  YS02001605           JUNCTION     0.70     1.78     8.68     0  01:58        1.77
  YS02001607           JUNCTION     0.70     1.65     8.49     0  02:10        1.64
  YS02001610           JUNCTION     0.74     1.68     8.48     0  01:58        1.68
  YS02001613           JUNCTION     0.70     1.66     8.50     0  02:00        1.65
  YS02001616           JUNCTION     0.64     1.61     8.52     0  02:00        1.59
  YS02001619           JUNCTION     0.62     1.61     8.54     0  01:59        1.58
  YS02001622           JUNCTION     0.63     1.62     8.52     0  01:58        1.56
  YS02001625           JUNCTION     0.89     1.78     8.38     0  01:58        1.78
  YS02001629           JUNCTION     0.91     1.85     8.40     0  01:58        1.85
  YS02001633           JUNCTION     0.99     2.05     8.50     0  02:00        2.05
  YS02001641           JUNCTION     0.98     1.95     8.39     0  02:02        1.93
  YS02001644           JUNCTION     0.98     1.92     8.35     0  02:02        1.92
  YS02001647           JUNCTION     0.79     1.75     8.36     0  02:02        1.68
  YS02001649           JUNCTION     0.96     1.93     8.32     0  02:02        1.84
  YS02001652           JUNCTION     0.78     1.81     8.41     0  02:02        1.81
  YS02001655           JUNCTION     0.59     1.81     8.66     0  02:02        1.81
  YS02001658           JUNCTION     0.37     1.76     8.91     0  02:02        1.76
  YS02001661           JUNCTION     0.18     1.00     8.41     0  02:03        0.98
  YS02001664           JUNCTION     0.05     0.47     8.39     0  02:02        0.37
  YS02001745           JUNCTION     0.07     0.77     8.28     0  02:02        0.75
  YS02001748           JUNCTION     0.40     1.54     8.62     0  02:02        1.01
  YS02001751           JUNCTION     0.55     1.54     8.42     0  02:02        1.19
  YS02001754           JUNCTION     0.76     1.63     8.23     0  02:02        1.47
  YS02001757           JUNCTION     1.05     1.88     8.15     0  02:02        1.81
  YS02001759           JUNCTION     0.96     1.85     8.21     0  02:02        1.76
  YS02001762           JUNCTION     0.93     1.84     8.24     0  02:02        1.75
  YS02001765           JUNCTION     0.89     1.83     8.28     0  02:02        1.72
  YS02001767           JUNCTION     0.87     1.84     8.33     0  02:02        1.70
  YS02001770           JUNCTION     0.87     1.89     8.39     0  02:02        1.76
  YS02001774           JUNCTION     0.93     1.96     8.38     0  02:02        1.87
  YS02001779           JUNCTION     0.70     1.68     8.37     0  02:00        1.68
  YS02001783           JUNCTION     0.46     2.00     8.14     0  01:59        1.49
  YS02001784           JUNCTION     0.51     1.92     7.99     0  01:59        1.43
  YS02001786           JUNCTION     0.52     1.97     8.00     0  01:59        1.27
  YS02001788           JUNCTION     0.53     2.28     8.26     0  01:59        1.13
  YS02001790           JUNCTION     0.78     1.96     7.60     0  01:59        1.30
  YS02001791           JUNCTION     0.88     1.68     7.15     0  01:59        1.29
  YS02001793           JUNCTION     1.35     2.01     6.84     0  01:59        1.81
  YS02001882           JUNCTION     0.26     1.76     8.48     0  01:59        1.73
  YS02001884           JUNCTION     0.35     1.84     8.46     0  01:59        1.81
  YS02001887           JUNCTION     0.42     1.87     8.41     0  01:59        1.86
  YS02001890           JUNCTION     0.45     1.81     8.32     0  01:59        1.81
  YS02001895           JUNCTION     0.23     1.56     8.31     0  02:03        1.56
  YS02001898           JUNCTION     0.24     1.62     8.36     0  01:59        1.56
  YS02001901           JUNCTION     0.35     1.82     8.43     0  01:59        1.67
  YS02001904           JUNCTION     0.33     1.79     8.42     0  01:59        1.64
  YS02001907           JUNCTION     0.64     1.96     8.25     0  01:59        1.96
  YS02001910           JUNCTION     0.44     1.97     8.48     0  02:00        1.95
  YS02001915           JUNCTION     0.26     1.92     8.64     0  02:00        1.89
  YS02001918           JUNCTION     0.13     1.81     8.88     0  02:00        1.81
  YS02001920           JUNCTION     0.21     2.14     9.15     0  02:00        2.04
  YS02001923           JUNCTION     0.09     2.03     9.29     0  02:00        1.94
  YS02001926           JUNCTION     0.13     1.90     9.35     0  02:00        1.90
  YS02001929           JUNCTION     0.07     1.78     9.47     0  02:00        1.78
  YS02006553           JUNCTION     0.64     2.15     8.43     0  01:59        1.97
  YS02006556           JUNCTION     0.62     2.24     8.55     0  01:59        1.96
  YS02006558           JUNCTION     0.66     2.26     8.52     0  01:59        2.01
  YS02006561           JUNCTION     0.14     1.79     8.45     0  01:59        1.11
  YS02163301           JUNCTION     0.93     1.93     8.45     0  02:00        1.93
  YS02163601           JUNCTION     1.03     2.05     8.45     0  02:00        2.05
  YS02164001           JUNCTION     0.96     1.95     8.41     0  02:02        1.95
  CC-1                 OUTFALL      0.00     0.00     0.00     0  00:00        0.00
  CC-2                 OUTFALL      0.00     0.00     0.00     0  00:00        0.00
  JK-1                 OUTFALL      0.00     0.00     0.00     0  00:00        0.00
  JK-2                 OUTFALL      0.00     0.00     0.00     0  00:00        0.00
  WSC                  OUTFALL      0.29     0.37     1.04     0  03:05        0.37
  CC-storage           STORAGE      1.65     2.10     7.60     0  07:28        2.10
  JK-storage           STORAGE      4.55     5.80     6.60     0  01:59        5.80
  XR-storage           STORAGE      0.27     5.00     3.00     0  00:00        4.91
  
  
  *******************
  Node Inflow Summary
  *******************
  
  -------------------------------------------------------------------------------------------------
                                  Maximum  Maximum                  Lateral       Total        Flow
                                  Lateral    Total  Time of Max      Inflow      Inflow     Balance
                                   Inflow   Inflow   Occurrence      Volume      Volume       Error
  Node                 Type           LPS      LPS  days hr:min    10^6 ltr    10^6 ltr     Percent
  -------------------------------------------------------------------------------------------------
  WS02001211           JUNCTION      7.35   389.13     0  03:36       0.212        11.1       0.348
  WS02001212           JUNCTION      0.00   390.85     0  03:36           0        11.1       0.208
  WS02001213           JUNCTION      0.00   392.60     0  03:35           0        11.1       0.239
  WS02003059           JUNCTION      0.00   395.65     0  03:35           0          11       0.329
  WS02003060           JUNCTION     16.53   816.04     0  02:30       0.476        14.4       0.156
  WS02003066           JUNCTION      0.00   411.85     0  03:02           0        2.96       0.069
  WS02003067           JUNCTION      0.00   411.85     0  03:02           0        2.97       0.183
  WS02003069           JUNCTION      0.32   816.35     0  03:03     0.00922        14.4       0.164
  WS02003072           JUNCTION      0.00   816.34     0  03:04           0        14.4       0.210
  WS02003073           JUNCTION      1.82   818.16     0  03:04      0.0524        14.4       0.225
  WS02004138           JUNCTION      0.00   380.00     0  00:00           0        10.9       0.059
  WS02004139           JUNCTION      0.32   395.52     0  00:00     0.00924        10.9       0.407
  WS02004401           JUNCTION      0.00   412.12     0  02:08           0        3.14       0.580
  WS02004402           JUNCTION      0.00   411.99     0  03:22           0        3.12       0.556
  WS02004403           JUNCTION      0.00   411.99     0  02:08           0         3.1       0.516
  WS02004404           JUNCTION      0.16   412.11     0  02:08     0.00467        3.09       0.398
  WS02004405           JUNCTION      0.04   412.13     0  02:09      0.0011        3.08       0.595
  WS02004406           JUNCTION      0.00   412.18     0  02:09           0        3.06       0.985
  WS02004407           JUNCTION      0.00   411.99     0  02:09           0        3.03       0.180
  WS02004409           JUNCTION      0.00   411.93     0  02:09           0        3.03       0.320
  WS02004410           JUNCTION      0.00   411.90     0  02:28           0        3.02       0.351
  WS02004411           JUNCTION      0.00   411.89     0  03:01           0        3.01       0.351
  WS02004412           JUNCTION      0.00   411.87     0  02:29           0           3       0.387
  WS02004413           JUNCTION      0.00   411.89     0  02:29           0        2.99       0.636
  WS02006109           JUNCTION      1.23   411.79     0  02:06      0.0354        3.24       0.535
  WS02006110           JUNCTION      0.00   411.79     0  02:06           0        3.23       0.537
  WS02006111           JUNCTION      0.00   423.66     0  02:57           0         3.2       0.136
  WS02006112           JUNCTION      0.00   413.32     0  02:01           0         3.2       0.861
  WS02006113           JUNCTION      0.00   411.86     0  02:35           0        3.21       0.262
  WS02006115           JUNCTION      0.00   412.26     0  02:07           0        3.17       0.518
  WS02006116           JUNCTION      0.00   412.11     0  02:08           0        3.15       0.423
  WS02006228           JUNCTION      0.00   410.55     0  02:06           0        3.22       0.326
  WS02006229           JUNCTION      0.00   410.54     0  02:06           0        3.23       0.340
  WS02006230           JUNCTION     10.28   410.62     0  02:06       0.296        3.24       0.349
  WS02006231           JUNCTION      0.00   400.45     0  02:06           0        2.95       0.284
  WS02006232           JUNCTION      0.00   400.44     0  02:05           0        2.97       0.742
  WS02006234           JUNCTION      0.00   401.83     0  02:00           0        2.98       0.071
  WS02006235           JUNCTION      0.00   402.07     0  02:23           0           3       0.519
  WS02006238           JUNCTION      0.00   401.34     0  02:01           0        2.98      -0.164
  WS02006239           JUNCTION      0.00   401.18     0  02:18           0        2.98       0.120
  WS02006240           JUNCTION      0.00   400.83     0  02:18           0        2.98       0.243
  WS02006242           JUNCTION      0.00   400.83     0  02:11           0        2.99       0.441
  WS02006243           JUNCTION      0.00   401.85     0  02:02           0           3       0.349
  WS02006245           JUNCTION      0.00   403.95     0  02:20           0        3.02       0.697
  WS02006247           JUNCTION      0.00   401.22     0  02:12           0        3.03       0.243
  WS02006248           JUNCTION      0.00   401.24     0  02:01           0        3.04       0.283
  WS02006249           JUNCTION      0.00   465.52     0  07:46           0        3.06       0.677
  WS02006251           JUNCTION      0.08   403.37     0  07:46     0.00222        3.06       0.175
  WS02006252           JUNCTION      0.00   400.00     0  00:00           0        3.06      -0.051
  WS02006256           JUNCTION      0.00   300.00     0  00:00           0      0.0243      -5.429
  WSF200               JUNCTION      0.00   411.85     0  03:02           0        2.96       0.043
  YS02001580           JUNCTION      0.00   135.59     0  01:58           0     0.00432       3.326
  YS02001583           JUNCTION      0.00   219.30     0  01:58           0      0.0146     -10.123
  YS02001586           JUNCTION    493.54   493.59     0  02:04        1.04        1.06       0.148
  YS02001590           JUNCTION      0.00   318.10     0  02:12           0       0.943      -0.028
  YS02001593           JUNCTION      0.00   318.15     0  02:02           0       0.943       0.043
  YS02001596           JUNCTION      0.00   318.08     0  02:02           0       0.943       0.042
  YS02001600           JUNCTION      0.00   318.13     0  02:03           0       0.944       0.429
  YS02001601           JUNCTION    887.14  1204.82     0  02:02        1.41        2.35       0.372
  YS02001602           JUNCTION      0.00   553.98     0  01:57           0        1.69       0.537
  YS02001605           JUNCTION      0.00   554.35     0  01:57           0        1.61       0.836
  YS02001607           JUNCTION      0.00   554.93     0  01:57           0         1.6       1.032
  YS02001610           JUNCTION      0.00   539.53     0  01:57           0        1.59       1.096
  YS02001613           JUNCTION      0.00   546.02     0  01:57           0        1.37       1.260
  YS02001616           JUNCTION      0.00   551.69     0  01:57           0        1.36       1.066
  YS02001619           JUNCTION    856.68   955.09     0  01:58        1.61        2.96       0.480
  YS02001622           JUNCTION      0.00   948.36     0  01:58           0        2.94       0.678
  YS02001625           JUNCTION      0.00   933.76     0  01:58           0        2.93       1.408
  YS02001629           JUNCTION      0.00   934.46     0  01:58           0        2.54       0.651
  YS02001633           JUNCTION    683.27  1454.41     0  01:59        1.06        3.55       0.900
  YS02001641           JUNCTION      0.00  1455.95     0  01:59           0        3.47       0.599
  YS02001644           JUNCTION    589.81  1926.59     0  01:59       0.872        4.32       0.595
  YS02001647           JUNCTION      0.00  1927.21     0  01:59           0        4.27       0.568
  YS02001649           JUNCTION      0.00  2193.05     0  02:00           0        5.05       0.728
  YS02001652           JUNCTION      0.00   707.59     0  02:03           0       0.826       2.283
  YS02001655           JUNCTION      0.15   705.78     0  02:03     0.00443       0.846       1.890
  YS02001658           JUNCTION      0.00   801.78     0  02:01           0       0.854       0.706
  YS02001661           JUNCTION      0.00   769.00     0  02:03           0       0.841       0.066
  YS02001664           JUNCTION    598.47   598.47     0  02:02       0.828       0.828      -0.019
  YS02001745           JUNCTION    370.39   459.22     0  02:01       0.478       0.481       0.391
  YS02001748           JUNCTION      0.04   575.78     0  02:02      0.0013       0.494       1.111
  YS02001751           JUNCTION      0.01   460.77     0  02:02    0.000317       0.502       3.313
  YS02001754           JUNCTION      0.26   461.47     0  02:02     0.00749       0.496       4.319
  YS02001757           JUNCTION      0.00  3408.43     0  02:03           0        7.03       1.377
  YS02001759           JUNCTION    538.15  1319.19     0  02:01       0.698        1.59       1.456
  YS02001762           JUNCTION      0.00   779.07     0  02:01           0       0.913       2.346
  YS02001765           JUNCTION      0.00   772.19     0  02:01           0       0.937       2.671
  YS02001767           JUNCTION      0.54   765.49     0  02:01      0.0154       0.973       3.740
  YS02001770           JUNCTION    736.63   751.48     0  02:02        1.03        1.05       3.064
  YS02001774           JUNCTION      0.00   435.46     0  02:00           0      0.0789      46.040
  YS02001779           JUNCTION      0.01   424.42     0  02:00    0.000144      0.0347      59.189
  YS02001783           JUNCTION      0.00   996.55     0  01:59           0        2.67       0.264
  YS02001784           JUNCTION      1.06   997.41     0  01:59      0.0305        2.69       0.407
  YS02001786           JUNCTION      0.06   995.13     0  01:59     0.00162        2.68       0.491
  YS02001788           JUNCTION      0.07   975.35     0  02:01     0.00204        2.67       0.502
  YS02001790           JUNCTION      0.15   976.44     0  02:01     0.00446        2.66       0.645
  YS02001791           JUNCTION      0.00   977.16     0  02:01           0        2.64       0.559
  YS02001793           JUNCTION      0.00   978.34     0  02:00           0        2.63       0.594
  YS02001882           JUNCTION      0.00    62.73     0  01:59           0      0.0124       3.992
  YS02001884           JUNCTION      0.00   119.49     0  01:58           0      0.0483       4.900
  YS02001887           JUNCTION    584.40   585.57     0  02:01       0.728       0.761       0.555
  YS02001890           JUNCTION      0.00   585.22     0  02:01           0       0.721       0.703
  YS02001895           JUNCTION      0.00   540.08     0  01:59           0       0.707       0.222
  YS02001898           JUNCTION      0.00   545.43     0  01:59           0       0.706      -0.006
  YS02001901           JUNCTION      0.00   551.34     0  01:59           0       0.709       0.448
  YS02001904           JUNCTION      0.00   557.57     0  01:59           0       0.713       0.373
  YS02001907           JUNCTION      0.00  1579.70     0  02:01           0        2.18       0.815
  YS02001910           JUNCTION      0.00  1062.60     0  02:01           0        1.48       0.476
  YS02001915           JUNCTION    600.09  1062.67     0  02:01        0.89        1.53       0.099
  YS02001918           JUNCTION      0.00   744.26     0  02:00           0       0.667       0.016
  YS02001920           JUNCTION      2.87   728.21     0  02:00      0.0827       0.645       0.006
  YS02001923           JUNCTION      0.04  1047.82     0  02:00     0.00109       0.545      -0.355
  YS02001926           JUNCTION      0.05  1242.47     0  02:00      0.0015       0.522      -0.535
  YS02001929           JUNCTION    304.39  1077.40     0  02:00       0.501       0.507      -0.857
  YS02006553           JUNCTION      0.00   673.53     0  02:13           0        1.71       0.693
  YS02006556           JUNCTION      0.00   674.39     0  02:13           0        1.71       0.469
  YS02006558           JUNCTION    735.35  1158.31     0  01:59        1.01        2.69       0.137
  YS02006561           JUNCTION      0.00  1159.97     0  01:59           0        2.67      -0.009
  YS02163301           JUNCTION      0.00   926.40     0  01:59           0        2.52       0.939
  YS02163601           JUNCTION      0.11  1453.52     0  01:59     0.00317        3.51       0.851
  YS02164001           JUNCTION      0.00  1454.33     0  01:59           0        3.49       0.553
  CC-1                 OUTFALL       0.00   683.00     0  00:00           0       0.208       0.000
  CC-2                 OUTFALL       0.00   683.00     0  00:00           0       0.208       0.000
  JK-1                 OUTFALL       0.00  1000.00     0  00:00           0      0.0791       0.000
  JK-2                 OUTFALL       0.00  1000.00     0  00:00           0      0.0791       0.000
  WSC                  OUTFALL       0.00   818.16     0  03:05           0        14.4       0.000
  CC-storage           STORAGE       0.00  3408.34     0  02:03           0        9.13       0.380
  JK-storage           STORAGE       0.00   978.96     0  02:01           0        2.76       0.572
  XR-storage           STORAGE     200.00   200.00     0  00:00        5.76        6.36     -41.886
  
  
  **********************
  Node Surcharge Summary
  **********************
  
  Surcharging occurs when water rises above the top of the highest conduit.
  ---------------------------------------------------------------------
                                               Max. Height   Min. Depth
                                   Hours       Above Crown    Below Rim
  Node                 Type      Surcharged         Meters       Meters
  ---------------------------------------------------------------------
  WS02006109           JUNCTION        1.59          0.015        1.805
  WS02006228           JUNCTION        1.58          0.013        2.187
  WS02006229           JUNCTION        1.60          0.024        2.426
  WS02006232           JUNCTION        1.66          0.050        1.430
  WS02006235           JUNCTION        1.60          0.056        1.234
  WS02006238           JUNCTION        1.63          0.086        1.344
  WS02006239           JUNCTION        1.61          0.067        1.223
  WS02006240           JUNCTION        1.62          0.079        1.311
  WS02006242           JUNCTION        1.70          0.175        0.645
  WS02006243           JUNCTION        1.63          0.132        0.638
  WS02006245           JUNCTION        1.63          0.146        0.704
  WS02006247           JUNCTION        1.65          0.181        0.579
  WS02006248           JUNCTION        1.63          0.137        0.243
  WS02006249           JUNCTION        1.65          0.195        0.195
  WS02006252           JUNCTION        2.01          1.100        0.000
  WS02006256           JUNCTION        3.15          2.050        0.000
  YS02001580           JUNCTION        0.35          0.450        0.000
  YS02001583           JUNCTION        0.36          0.500        0.000
  YS02001586           JUNCTION        0.49          0.510        0.000
  YS02001590           JUNCTION        0.56          0.750        0.000
  YS02001593           JUNCTION        0.56          0.738        0.102
  YS02001596           JUNCTION        0.67          0.972        0.098
  YS02001600           JUNCTION        0.91          1.190        0.000
  YS02001601           JUNCTION        6.21          1.440        0.000
  YS02001602           JUNCTION        6.11          1.270        0.000
  YS02001605           JUNCTION        6.09          1.176        0.004
  YS02001607           JUNCTION        0.61          0.645        0.035
  YS02001610           JUNCTION        0.65          0.680        0.000
  YS02001613           JUNCTION        0.61          0.664        0.036
  YS02001616           JUNCTION        0.56          0.609        0.001
  YS02001619           JUNCTION        0.54          0.610        0.000
  YS02001622           JUNCTION        0.54          0.620        0.000
  YS02001625           JUNCTION        1.17          0.780        0.000
  YS02001629           JUNCTION        0.48          0.470        0.000
  YS02001633           JUNCTION        6.06          1.027        0.033
  YS02001641           JUNCTION        6.05          0.951        0.149
  YS02001644           JUNCTION        6.04          0.920        0.000
  YS02001647           JUNCTION        1.04          0.753        0.147
  YS02001649           JUNCTION        6.00          0.925        0.125
  YS02001652           JUNCTION        0.67          0.784        0.346
  YS02001655           JUNCTION        0.17          0.806        0.394
  YS02001658           JUNCTION        0.04          0.765        0.535
  YS02001748           JUNCTION        0.01          0.458        0.732
  YS02001751           JUNCTION        0.08          0.539        0.661
  YS02001754           JUNCTION        0.23          0.575        0.575
  YS02001757           JUNCTION        6.00          0.885        0.325
  YS02001759           JUNCTION        5.99          0.850        0.360
  YS02001762           JUNCTION        5.99          0.844        0.306
  YS02001765           JUNCTION        5.99          0.827        0.273
  YS02001767           JUNCTION        5.99          0.837        0.193
  YS02001770           JUNCTION        5.89          0.863        0.057
  YS02001774           JUNCTION        5.99          0.961        0.089
  YS02001779           JUNCTION        0.21          0.680        0.000
  YS02001783           JUNCTION        0.46          1.202        0.398
  YS02001784           JUNCTION        0.46          1.124        0.366
  YS02001786           JUNCTION        0.45          1.172        0.258
  YS02001788           JUNCTION        0.45          1.480        0.000
  YS02001790           JUNCTION        6.01          1.157        0.000
  YS02001791           JUNCTION        6.02          0.878        1.042
  YS02001793           JUNCTION        6.03          1.012        1.588
  YS02001882           JUNCTION        0.34          0.761        0.069
  YS02001884           JUNCTION        0.35          0.778        0.092
  YS02001887           JUNCTION        0.37          0.821        0.129
  YS02001890           JUNCTION        0.38          0.760        0.000
  YS02001895           JUNCTION        0.33          0.564        0.186
  YS02001898           JUNCTION        0.32          0.594        0.146
  YS02001901           JUNCTION        0.36          0.818        0.052
  YS02001904           JUNCTION        0.35          0.792        0.058
  YS02001907           JUNCTION        0.52          0.950        0.000
  YS02001910           JUNCTION        0.40          0.974        0.126
  YS02001915           JUNCTION        0.33          0.917        0.083
  YS02001918           JUNCTION        0.26          0.810        0.000
  YS02001920           JUNCTION        0.27          1.140        0.000
  YS02001923           JUNCTION        0.01          0.820        0.000
  YS02001926           JUNCTION        0.02          0.900        0.000
  YS02001929           JUNCTION        0.01          0.780        0.000
  YS02006553           JUNCTION        0.53          1.147        0.043
  YS02006556           JUNCTION        0.47          1.198        0.152
  YS02006558           JUNCTION        0.46          1.157        0.243
  YS02006561           JUNCTION        0.29          0.993        0.157
  YS02163301           JUNCTION        5.97          0.931        0.099
  YS02163601           JUNCTION        6.06          1.051        0.029
  YS02164001           JUNCTION        6.05          0.950        0.150
  
  
  *********************
  Node Flooding Summary
  *********************
  
  Flooding refers to all water that overflows a node, whether it ponds or not.
  --------------------------------------------------------------------------
                                                             Total   Maximum
                                 Maximum   Time of Max       Flood    Ponded
                        Hours       Rate    Occurrence      Volume     Depth
  Node                 Flooded       LPS   days hr:min    10^6 ltr    Meters
  --------------------------------------------------------------------------
  WS02006252              0.01    245.63      0  00:00       0.000     0.000
  WS02006256              0.02    293.19      0  00:00       0.005     0.000
  YS02001580              0.01     65.16      0  01:58       0.000     0.000
  YS02001583              0.01    141.70      0  01:58       0.000     0.000
  YS02001586              0.27    175.95      0  02:04       0.101     0.000
  YS02001590              0.01     12.70      0  01:58       0.000     0.000
  YS02001600              0.01      3.29      0  01:58       0.000     0.000
  YS02001601              0.43    806.92      0  02:02       0.654     0.000
  YS02001602              0.35     62.06      0  02:15       0.068     0.000
  YS02001610              0.28    348.89      0  02:04       0.213     0.000
  YS02001619              0.01      1.36      0  01:59       0.000     0.000
  YS02001622              0.01    170.60      0  01:58       0.000     0.000
  YS02001625              0.26    914.97      0  02:04       0.364     0.000
  YS02001629              0.06    212.77      0  01:58       0.012     0.000
  YS02001644              0.03    202.92      0  02:02       0.015     0.000
  YS02001779              0.01    369.16      0  02:00       0.005     0.000
  YS02001788              0.01    213.70      0  01:59       0.000     0.000
  YS02001790              0.01     14.74      0  01:59       0.000     0.000
  YS02001890              0.05     70.83      0  02:01       0.008     0.000
  YS02001907              0.21   1336.47      0  02:01       0.464     0.000
  YS02001918              0.01    193.59      0  02:01       0.003     0.000
  YS02001920              0.01    392.11      0  02:00       0.000     0.000
  YS02001923              0.01     65.91      0  02:00       0.000     0.000
  YS02001926              0.01     70.06      0  02:00       0.001     0.000
  YS02001929              0.01    892.94      0  02:00       0.007     0.000
  JK-storage              6.01    978.43      0  02:01       2.274     0.000
  
  
  **********************
  Storage Volume Summary
  **********************
  
  ------------------------------------------------------------------------------------------------
                         Average    Avg   Evap  Exfil     Maximum    Max    Time of Max    Maximum
                          Volume   Pcnt   Pcnt   Pcnt      Volume   Pcnt     Occurrence    Outflow
  Storage Unit           1000 m³   Full   Loss   Loss     1000 m³   Full    days hr:min        LPS
  ------------------------------------------------------------------------------------------------
  CC-storage               4.605   71.8    0.0    0.0       5.840   91.1       0  07:28    1783.53
  JK-storage               0.228   78.4    0.0    0.0       0.291  100.0       0  01:59    2300.00
  XR-storage               0.033    2.3    0.0    0.0       0.600   41.7       0  00:00     380.00
  
  
  ***********************
  Outfall Loading Summary
  ***********************
  
  -----------------------------------------------------------
                         Flow       Avg       Max       Total
                         Freq      Flow      Flow      Volume
  Outfall Node           Pcnt       LPS       LPS    10^6 ltr
  -----------------------------------------------------------
  CC-1                   1.20    683.00    683.00       0.208
  CC-2                   1.20    683.00    683.00       0.208
  JK-1                   1.12    347.46   1000.00       0.079
  JK-2                   1.12    347.46   1000.00       0.079
  WSC                   99.93    535.00    818.16      14.376
  -----------------------------------------------------------
  System                20.91   2595.93   3366.35      14.951
  
  
  ********************
  Link Flow Summary
  ********************
  
  -----------------------------------------------------------------------------
                                 Maximum  Time of Max   Maximum    Max/    Max/
                                  |Flow|   Occurrence   |Veloc|    Full    Full
  Link                 Type          LPS  days hr:min     m/sec    Flow   Depth
  -----------------------------------------------------------------------------
  1                    CONDUIT    818.16     0  03:05      3.15    0.28    0.37
  WS02001211WS02001212 CONDUIT    390.85     0  03:36      0.78    0.30    0.64
  WS02001212WS02001213 CONDUIT    392.60     0  03:35      1.32    0.61    0.45
  WS02001213WS02003059 CONDUIT    395.65     0  03:35      0.85    0.65    0.75
  WS02003059WS02003060 CONDUIT    399.95     0  03:35      0.95    0.26    0.63
  WS02003060WS02003069 CONDUIT    816.03     0  03:03      1.80    0.32    0.42
  WS02003066WSF200     CONDUIT    411.85     0  03:02      2.69    0.07    0.19
  WS02003067WS02003066 CONDUIT    411.85     0  03:02      1.04    0.13    0.38
  WS02003069WS02003072 CONDUIT    816.34     0  03:04      1.55    0.39    0.47
  WS02003072WS02003073 CONDUIT    816.34     0  03:04      1.64    1.76    0.45
  WS02004138WS02004139 CONDUIT    395.20     0  00:00      3.65    0.08    0.43
  WS02004139WS02001211 CONDUIT    381.78     0  03:36      0.91    0.48    0.59
  WS02004401WS02004402 CONDUIT    411.99     0  03:22      0.99    0.49    0.77
  WS02004402WS02004403 CONDUIT    411.99     0  02:08      0.99    0.59    0.79
  WS02004403WS02004404 CONDUIT    411.95     0  02:08      0.93    0.30    0.84
  WS02004404WS02004405 CONDUIT    412.09     0  02:09      1.10    4.04    0.88
  WS02004405WS02004406 CONDUIT    412.18     0  02:09      1.03    0.81    0.88
  WS02004406WS02004407 CONDUIT    411.99     0  02:09      0.89    0.18    0.57
  WS02004407WS02004409 CONDUIT    411.93     0  02:09      1.41    0.15    0.42
  WS02004409WS02004410 CONDUIT    411.90     0  02:28      0.92    0.53    0.58
  WS02004410WS02004411 CONDUIT    411.89     0  03:01      0.86    0.56    0.60
  WS02004411WS02004412 CONDUIT    411.87     0  02:29      0.81    0.59    0.61
  WS02004412WS02004413 CONDUIT    411.89     0  02:29      0.70    0.28    0.70
  WS02004413WS02003067 CONDUIT    411.85     0  03:02      0.96    0.18    0.53
  WS02006109WS02006110 CONDUIT    411.79     0  02:06      0.84    0.79    0.94
  WS02006110WS02006113 CONDUIT    411.86     0  02:35      1.03    0.37    0.75
  WS02006111WS02006112 CONDUIT    413.32     0  02:01      1.83    0.20    0.65
  WS02006112WS02006115 CONDUIT    412.26     0  02:07      0.71    0.24    0.78
  WS02006113WS02006111 CONDUIT    423.66     0  02:57      2.25    0.51    0.40
  WS02006115WS02006116 CONDUIT    412.11     0  02:08      0.98    0.53    0.66
  WS02006116WS02004401 CONDUIT    412.12     0  02:08      1.00    0.57    0.74
  WS02006228WS02006109 CONDUIT    410.56     0  02:06      1.06    1.79    1.00
  WS02006229WS02006228 CONDUIT    410.55     0  02:06      1.13    1.36    1.00
  WS02006230WS02006229 CONDUIT    410.54     0  02:06      1.22    9.14    1.00
  WS02006231WS02006230 CONDUIT    400.34     0  02:06      1.37    6.07    0.77
  WS02006232WS02006231 CONDUIT    400.45     0  02:06      1.08    0.84    0.92
  WS02006234WS02006232 CONDUIT    400.44     0  02:05      1.40    0.81    1.00
  WS02006235WS02006234 CONDUIT    401.83     0  02:00      1.30    4.24    0.99
  WS02006238WS02006235 CONDUIT    401.96     0  02:23      1.48    0.90    1.00
  WS02006239WS02006238 CONDUIT    401.34     0  02:01      1.21    1.28    1.00
  WS02006240WS02006239 CONDUIT    401.18     0  02:18      1.30    1.26    1.00
  WS02006242WS02006240 CONDUIT    400.83     0  02:18      1.17    1.59    1.00
  WS02006243WS02006242 CONDUIT    400.83     0  02:11      1.43    0.86    1.00
  WS02006245WS02006243 CONDUIT    401.85     0  02:02      1.45    1.19    1.00
  WS02006247WS02006245 CONDUIT    403.95     0  02:20      1.43    3.20    1.00
  WS02006248WS02006247 CONDUIT    401.22     0  02:12      1.45    0.87    1.00
  WS02006249WS02006248 CONDUIT    401.24     0  02:01      1.41    2.20    1.00
  WS02006251WS02006249 CONDUIT    465.52     0  07:46      1.99    1.34    1.00
  WS02006252WS02006251 CONDUIT    403.29     0  07:46     24.55    1.48    1.00
  WS02006256WS02006235 CONDUIT    288.91     0  00:00      4.23    3.06    1.00
  WSF200WS02003060     CONDUIT    411.85     0  03:02      1.43    0.09    0.30
  YS02001580YS02001583 CONDUIT    135.59     0  01:58      0.81    0.53    1.00
  YS02001583YS02001586 CONDUIT    191.83     0  01:58      0.81    0.29    1.00
  YS02001586YS02001590 CONDUIT    318.10     0  02:12      1.28    0.56    1.00
  YS02001590YS02001593 CONDUIT    318.15     0  02:02      1.13    2.00    1.00
  YS02001593YS02001596 CONDUIT    318.08     0  02:02      1.62    0.50    1.00
  YS02001596YS02001600 CONDUIT    318.13     0  02:03      1.13    0.62    1.00
  YS02001600YS02001601 CONDUIT    317.94     0  02:10      1.12    0.55    1.00
  YS02001601YS02001602 CONDUIT    553.98     0  01:57      1.96    2.00    1.00
  YS02001602YS02001605 CONDUIT    554.35     0  01:57      1.96   11.73    1.00
  YS02001605YS02001607 CONDUIT    554.93     0  01:57      1.96    3.04    1.00
  YS02001607YS02001610 CONDUIT    539.53     0  01:57      0.69    0.51    1.00
  YS02001610YS02001613 CONDUIT    546.02     0  01:57      0.70    0.63    1.00
  YS02001613YS02001616 CONDUIT    551.69     0  01:57      0.70    0.47    1.00
  YS02001616YS02001619 CONDUIT    510.90     0  01:58      0.66    0.89    1.00
  YS02001619YS02001622 CONDUIT    948.36     0  01:58      1.23    1.40    1.00
  YS02001622YS02001625 CONDUIT    933.76     0  01:58      1.19    0.50    1.00
  YS02001625YS02001629 CONDUIT    934.46     0  01:58      1.19    0.44    1.00
  YS02001629YS02163301 CONDUIT    926.40     0  01:59      1.18    1.14    1.00
  YS02001633YS02163601 CONDUIT   1453.41     0  01:59      1.85    1.53    1.00
  YS02001641YS02001644 CONDUIT   1457.41     0  01:59      1.86    4.71    1.00
  YS02001644YS02001647 CONDUIT   1927.21     0  01:59      2.47    1.13    1.00
  YS02001647YS02001649 CONDUIT   1929.46     0  02:00      2.46    1.02    1.00
  YS02001649YS02001757 CONDUIT   2198.69     0  02:00      2.80    1.33    1.00
  YS02001652YS02001649 CONDUIT    711.62     0  02:03      0.91    0.35    1.00
  YS02001655YS02001652 CONDUIT    707.59     0  02:03      1.38    0.34    1.00
  YS02001658YS02001655 CONDUIT    705.62     0  02:03      2.00    0.30    1.00
  YS02001661YS02001658 CONDUIT    801.78     0  02:01      2.44    0.31    0.97
  YS02001664YS02001661 CONDUIT    769.00     0  02:03      2.44    0.24    0.69
  YS02001745YS02001748 CONDUIT    575.74     0  02:02      2.30    0.22    0.86
  YS02001748YS02001751 CONDUIT    460.76     0  02:02      1.79    0.23    1.00
  YS02001751YS02001754 CONDUIT    461.21     0  02:02      1.49    0.22    1.00
  YS02001754YS02001757 CONDUIT    462.98     0  02:02      0.59    0.19    1.00
  YS02001757CaochengTiaoxuchi CONDUIT   3408.34     0  02:03      4.37    1.48    1.00
  YS02001759YS02001757 CONDUIT   1321.18     0  02:01      1.68    0.94    1.00
  YS02001762YS02001759 CONDUIT    783.81     0  02:01      1.00    0.90    1.00
  YS02001765YS02001762 CONDUIT    779.07     0  02:01      0.99    0.73    1.00
  YS02001767YS02001765 CONDUIT    772.19     0  02:01      0.98    0.97    1.00
  YS02001770YS02001767 CONDUIT    764.95     0  02:01      0.97    3.03    1.00
  YS02001774YS02001770 CONDUIT    435.46     0  02:00      0.55    0.28    1.00
  YS02001779YS02001774 CONDUIT    424.41     0  02:00      0.54    0.21    1.00
  YS02001783YS02001784 CONDUIT    996.35     0  01:59      1.98    1.37    1.00
  YS02001784YS02001785 CONDUIT    995.07     0  01:59      1.99    2.32    1.00
  YS02001786YS02001788 CONDUIT    975.28     0  02:01      2.27    1.88    1.00
  YS02001788YS02001790 CONDUIT    976.28     0  02:01      2.36    0.72    1.00
  YS02001790YS02001791 CONDUIT    977.16     0  02:01      2.81    1.06    1.00
  YS02001791YS02001793 CONDUIT    978.34     0  02:00      5.30    0.42    1.00
  YS02001793JiankangQianchi CONDUIT    978.96     0  02:01      1.54    0.08    1.00
  YS02001882YS02001884 CONDUIT     62.73     0  01:59      0.10    0.07    1.00
  YS02001884YS02001887 CONDUIT    119.49     0  01:58      0.15    0.16    1.00
  YS02001887YS02001890 CONDUIT    585.22     0  02:01      0.75    1.00    1.00
  YS02001890YS02001895 CONDUIT    540.08     0  01:59      0.69    0.25    1.00
  YS02001895YS02001898 CONDUIT    545.43     0  01:59      0.69    0.95    1.00
  YS02001898YS02001901 CONDUIT    551.34     0  01:59      0.70    0.36    1.00
  YS02001901YS02001904 CONDUIT    557.57     0  01:59      0.71    0.86    1.00
  YS02001904YS02001907 CONDUIT    564.76     0  01:59      0.72    0.20    1.00
  YS02001907YS02006553 CONDUIT    673.53     0  02:13      0.75    0.79    1.00
  YS02001910YS02001907 CONDUIT   1064.05     0  02:01      1.35    0.60    1.00
  YS02001915YS02001910 CONDUIT   1062.60     0  02:01      1.35    0.53    1.00
  YS02001918YS02001915 CONDUIT    744.26     0  02:00      0.95    0.41    1.00
  YS02001920YS02001918 CONDUIT    725.34     0  02:00      0.92    0.70    1.00
  YS02001923YS02001920 CONDUIT    762.71     0  02:00      1.05    0.34    1.00
  YS02001926YS02001923 CONDUIT    984.01     0  02:00      1.46    1.41    1.00
  YS02001929YS02001926 CONDUIT    806.36     0  02:00      1.23    0.38    1.00
  YS02006553YS02006556 CONDUIT    674.39     0  02:13      0.86    0.58    1.00
  YS02006556YS02006558 CONDUIT    677.15     0  02:13      0.86    0.53    1.00
  YS02006558YS02006561 CONDUIT   1159.97     0  01:59      4.10    2.56    1.00
  YS02006561YS02001783 CONDUIT    996.55     0  01:59      2.18    0.52    1.00
  YS02163301YS02001633 CONDUIT    926.66     0  01:59      1.18    0.87    1.00
  YS02163601YS02164001 CONDUIT   1454.33     0  01:59      1.85    1.29    1.00
  YS02164001YS02001641 CONDUIT   1455.95     0  01:59      1.85    1.99    1.00
  CC-R1                PUMP       683.00     0  00:00              1.00
  CC-R2                PUMP       683.00     0  00:00              1.00
  CC-S1                PUMP       200.00     0  00:00              1.00
  CC-S2                PUMP       200.00     0  00:00              1.00
  JK-R1                PUMP      1000.00     0  00:00              1.00
  JK-R2                PUMP      1000.00     0  00:00              1.00
  JK-S                 PUMP       300.00     0  00:00              1.00
  XR-1                 PUMP        95.00     0  00:00              1.00
  XR-2                 PUMP        95.00     0  00:00              1.00
  XR-3                 PUMP        95.00     0  00:00              1.00
  XR-4                 PUMP        95.00     0  00:00              1.00
  
  
  ***************************
  Flow Classification Summary
  ***************************
  
  -------------------------------------------------------------------------------------
                      Adjusted    ---------- Fraction of Time in Flow Class ---------- 
                       /Actual         Up    Down  Sub   Sup   Up    Down  Norm  Inlet 
  Conduit               Length    Dry  Dry   Dry   Crit  Crit  Crit  Crit  Ltd   Ctrl  
  -------------------------------------------------------------------------------------
  1                       1.00   0.00  0.00  0.00  0.00  1.00  0.00  0.00  0.18  0.00
  WS02001211WS02001212    1.00   0.00  0.00  0.00  1.00  0.00  0.00  0.00  0.00  0.00
  WS02001212WS02001213    1.00   0.00  0.00  0.00  0.34  0.00  0.65  0.00  0.00  0.00
  WS02001213WS02003059    1.00   0.00  0.00  0.00  0.99  0.00  0.00  0.00  0.00  0.00
  WS02003059WS02003060    1.00   0.00  0.00  0.00  1.00  0.00  0.00  0.00  0.00  0.00
  WS02003060WS02003069    1.00   0.00  0.00  0.00  0.99  0.01  0.00  0.00  0.00  0.00
  WS02003066WSF200        1.00   0.02  0.10  0.00  0.00  0.88  0.00  0.00  0.86  0.00
  WS02003067WS02003066    1.00   0.10  0.02  0.00  0.89  0.00  0.00  0.00  0.00  0.00
  WS02003069WS02003072    1.00   0.00  0.00  0.00  0.99  0.01  0.00  0.00  0.00  0.00
  WS02003072WS02003073    1.00   0.00  0.00  0.00  0.00  0.00  0.00  1.00  0.00  0.00
  WS02004138WS02004139    1.00   0.00  0.00  0.00  0.99  0.01  0.00  0.00  1.00  0.00
  WS02004139WS02001211    1.00   0.00  0.00  0.00  1.00  0.00  0.00  0.00  0.00  0.00
  WS02004401WS02004402    1.00   0.02  0.00  0.00  0.98  0.00  0.00  0.00  0.00  0.00
  WS02004402WS02004403    1.00   0.02  0.00  0.00  0.98  0.00  0.00  0.00  0.00  0.00
  WS02004403WS02004404    1.00   0.00  0.03  0.00  0.97  0.00  0.00  0.00  0.00  0.00
  WS02004404WS02004405    1.00   0.00  0.00  0.00  1.00  0.00  0.00  0.00  0.00  0.00
  WS02004405WS02004406    1.00   0.00  0.00  0.00  1.00  0.00  0.00  0.00  0.00  0.00
  WS02004406WS02004407    1.00   0.00  0.05  0.00  0.95  0.00  0.00  0.00  0.00  0.00
  WS02004407WS02004409    1.00   0.05  0.00  0.00  0.94  0.01  0.00  0.00  0.94  0.00
  WS02004409WS02004410    1.00   0.05  0.00  0.00  0.95  0.00  0.00  0.00  0.02  0.00
  WS02004410WS02004411    1.00   0.05  0.00  0.00  0.95  0.00  0.00  0.00  0.00  0.00
  WS02004411WS02004412    1.00   0.05  0.00  0.00  0.95  0.00  0.00  0.00  0.00  0.00
  WS02004412WS02004413    1.00   0.05  0.00  0.00  0.94  0.00  0.00  0.00  0.01  0.00
  WS02004413WS02003067    1.00   0.06  0.04  0.00  0.00  0.00  0.90  0.00  0.00  0.00
  WS02006109WS02006110    1.00   0.00  0.01  0.00  0.98  0.00  0.01  0.00  0.00  0.00
  WS02006110WS02006113    1.00   0.01  0.01  0.00  0.98  0.00  0.00  0.00  0.00  0.00
  WS02006111WS02006112    1.00   0.02  0.00  0.00  0.98  0.00  0.00  0.00  0.98  0.00
  WS02006112WS02006115    1.00   0.02  0.00  0.00  0.97  0.00  0.00  0.00  0.00  0.00
  WS02006113WS02006111    1.00   0.02  0.00  0.00  0.00  0.98  0.00  0.00  0.10  0.00
  WS02006115WS02006116    1.00   0.02  0.00  0.00  0.97  0.00  0.00  0.01  0.00  0.00
  WS02006116WS02004401    1.00   0.02  0.00  0.00  0.98  0.00  0.00  0.00  0.00  0.00
  WS02006228WS02006109    1.00   0.00  0.00  0.00  1.00  0.00  0.00  0.00  0.00  0.00
  WS02006229WS02006228    1.00   0.00  0.00  0.00  0.99  0.00  0.00  0.01  0.00  0.00
  WS02006230WS02006229    1.00   0.00  0.00  0.00  0.99  0.00  0.00  0.01  0.00  0.00
  WS02006231WS02006230    1.00   0.00  0.00  0.00  0.21  0.00  0.78  0.00  0.00  0.00
  WS02006232WS02006231    1.00   0.00  0.00  0.00  0.99  0.00  0.01  0.00  0.00  0.00
  WS02006234WS02006232    1.00   0.00  0.00  0.00  1.00  0.00  0.00  0.00  0.51  0.00
  WS02006235WS02006234    1.00   0.00  0.00  0.00  0.45  0.00  0.55  0.00  0.00  0.00
  WS02006238WS02006235    1.00   0.00  0.00  0.00  1.00  0.00  0.00  0.00  0.00  0.00
  WS02006239WS02006238    1.00   0.00  0.00  0.00  1.00  0.00  0.00  0.00  0.60  0.00
  WS02006240WS02006239    1.00   0.00  0.00  0.00  0.36  0.00  0.00  0.64  0.01  0.00
  WS02006242WS02006240    1.00   0.00  0.00  0.00  0.99  0.00  0.01  0.00  0.00  0.00
  WS02006243WS02006242    1.00   0.00  0.00  0.00  0.99  0.00  0.00  0.01  0.69  0.00
  WS02006245WS02006243    1.00   0.00  0.00  0.00  0.41  0.00  0.00  0.59  0.00  0.00
  WS02006247WS02006245    1.00   0.00  0.00  0.00  0.99  0.00  0.00  0.01  0.00  0.00
  WS02006248WS02006247    1.00   0.00  0.00  0.00  0.99  0.00  0.00  0.01  0.13  0.00
  WS02006249WS02006248    1.00   0.00  0.00  0.00  0.31  0.00  0.69  0.00  0.00  0.00
  WS02006251WS02006249    1.00   0.00  0.00  0.00  1.00  0.00  0.00  0.00  0.69  0.00
  WS02006252WS02006251    1.00   0.00  0.72  0.00  0.00  0.00  0.28  0.00  0.53  0.00
  WS02006256WS02006235    1.00   0.00  0.00  0.00  1.00  0.00  0.00  0.00  0.00  0.00
  WSF200WS02003060        1.00   0.00  0.02  0.00  0.98  0.00  0.00  0.00  0.68  0.00
  YS02001580YS02001583    1.00   0.24  0.60  0.00  0.16  0.00  0.00  0.00  0.69  0.00
  YS02001583YS02001586    1.00   0.50  0.28  0.00  0.21  0.00  0.00  0.00  0.69  0.00
  YS02001586YS02001590    1.00   0.13  0.00  0.00  0.37  0.04  0.00  0.47  0.33  0.00
  YS02001590YS02001593    1.00   0.13  0.01  0.00  0.08  0.00  0.78  0.00  0.00  0.00
  YS02001593YS02001596    1.00   0.14  0.00  0.00  0.52  0.04  0.00  0.30  0.47  0.00
  YS02001596YS02001600    1.00   0.14  0.00  0.00  0.78  0.00  0.00  0.07  0.01  0.00
  YS02001600YS02001601    1.00   0.13  0.01  0.00  0.86  0.00  0.00  0.00  0.05  0.00
  YS02001601YS02001602    1.00   0.13  0.01  0.00  0.86  0.00  0.00  0.00  0.00  0.00
  YS02001602YS02001605    1.00   0.14  0.00  0.00  0.86  0.00  0.00  0.00  0.00  0.00
  YS02001605YS02001607    1.00   0.14  0.00  0.00  0.86  0.00  0.00  0.00  0.00  0.00
  YS02001607YS02001610    1.00   0.13  0.01  0.00  0.86  0.00  0.00  0.00  0.02  0.00
  YS02001610YS02001613    1.00   0.13  0.00  0.00  0.87  0.00  0.00  0.00  0.01  0.00
  YS02001613YS02001616    1.00   0.13  0.00  0.00  0.87  0.00  0.00  0.00  0.01  0.00
  YS02001616YS02001619    1.00   0.13  0.00  0.00  0.87  0.00  0.00  0.00  0.00  0.00
  YS02001619YS02001622    1.00   0.13  0.00  0.00  0.87  0.00  0.00  0.00  0.00  0.00
  YS02001622YS02001625    1.00   0.13  0.00  0.00  0.87  0.00  0.00  0.00  0.06  0.00
  YS02001625YS02001629    1.00   0.13  0.06  0.00  0.77  0.00  0.04  0.00  0.00  0.00
  YS02001629YS02163301    1.00   0.16  0.01  0.00  0.83  0.00  0.00  0.00  0.00  0.00
  YS02001633YS02163601    1.00   0.00  0.01  0.00  0.99  0.00  0.00  0.00  0.15  0.00
  YS02001641YS02001644    1.00   0.00  0.01  0.00  0.99  0.00  0.00  0.00  0.00  0.00
  YS02001644YS02001647    1.00   0.00  0.18  0.00  0.82  0.00  0.00  0.00  0.00  0.00
  YS02001647YS02001649    1.00   0.00  0.18  0.00  0.80  0.02  0.00  0.00  0.02  0.00
  YS02001649YS02001757    1.00   0.00  0.00  0.00  0.97  0.03  0.00  0.00  0.20  0.00
  YS02001652YS02001649    1.00   0.00  0.00  0.00  0.96  0.04  0.00  0.00  0.18  0.00
  YS02001655YS02001652    1.00   0.00  0.00  0.00  0.76  0.01  0.00  0.23  0.00  0.00
  YS02001658YS02001655    1.00   0.00  0.15  0.00  0.76  0.10  0.00  0.00  0.04  0.00
  YS02001661YS02001658    1.00   0.14  0.00  0.00  0.75  0.11  0.00  0.00  0.03  0.00
  YS02001664YS02001661    1.00   0.13  0.00  0.00  0.81  0.07  0.00  0.00  0.86  0.00
  YS02001745YS02001748    1.00   0.00  0.00  0.00  0.75  0.00  0.00  0.25  0.10  0.00
  YS02001748YS02001751    1.00   0.00  0.00  0.00  0.91  0.09  0.00  0.00  0.13  0.00
  YS02001751YS02001754    1.00   0.00  0.00  0.00  0.76  0.00  0.00  0.24  0.00  0.00
  YS02001754YS02001757    1.00   0.00  0.00  0.00  1.00  0.00  0.00  0.00  0.24  0.00
  YS02001757CaochengTiaoxuchi    1.00   0.00  0.00  0.00  0.98  0.02  0.00  0.00  0.22  0.00
  YS02001759YS02001757    1.00   0.00  0.00  0.00  1.00  0.00  0.00  0.00  0.06  0.00
  YS02001762YS02001759    1.00   0.00  0.00  0.00  1.00  0.00  0.00  0.00  0.05  0.00
  YS02001765YS02001762    1.00   0.00  0.00  0.00  1.00  0.00  0.00  0.00  0.17  0.00
  YS02001767YS02001765    1.00   0.00  0.00  0.00  1.00  0.00  0.00  0.00  0.00  0.00
  YS02001770YS02001767    1.00   0.00  0.00  0.00  1.00  0.00  0.00  0.00  0.00  0.00
  YS02001774YS02001770    1.00   0.00  0.14  0.00  0.86  0.00  0.00  0.00  0.04  0.00
  YS02001779YS02001774    1.00   0.00  0.00  0.00  1.00  0.00  0.00  0.00  0.19  0.00
  YS02001783YS02001784    1.00   0.00  0.19  0.00  0.81  0.00  0.00  0.00  0.00  0.00
  YS02001784YS02001785    1.00   0.00  0.00  0.00  1.00  0.00  0.00  0.00  0.18  0.00
  YS02001786YS02001788    1.00   0.00  0.00  0.00  0.96  0.04  0.00  0.00  0.00  0.00
  YS02001788YS02001790    1.00   0.00  0.00  0.00  0.95  0.05  0.00  0.00  0.20  0.00
  YS02001790YS02001791    1.00   0.00  0.00  0.00  0.77  0.23  0.00  0.00  0.03  0.00
  YS02001791YS02001793    1.00   0.00  0.00  0.00  0.76  0.24  0.00  0.00  0.00  0.00
  YS02001793JiankangQianchi    1.00   0.00  0.00  0.00  0.93  0.06  0.00  0.00  0.22  0.00
  YS02001882YS02001884    1.00   0.16  0.01  0.00  0.83  0.00  0.00  0.00  0.00  0.00
  YS02001884YS02001887    1.00   0.06  0.05  0.00  0.89  0.00  0.00  0.00  0.00  0.00
  YS02001887YS02001890    1.00   0.00  0.00  0.00  0.97  0.00  0.03  0.00  0.00  0.00
  YS02001890YS02001895    1.00   0.00  0.17  0.00  0.82  0.00  0.00  0.00  0.00  0.00
  YS02001895YS02001898    1.00   0.18  0.00  0.00  0.80  0.00  0.02  0.00  0.00  0.00
  YS02001898YS02001901    1.00   0.18  0.00  0.00  0.82  0.00  0.00  0.00  0.01  0.00
  YS02001901YS02001904    1.00   0.18  0.00  0.00  0.82  0.00  0.00  0.00  0.00  0.00
  YS02001904YS02001907    1.00   0.00  0.17  0.00  0.82  0.00  0.00  0.00  0.00  0.00
  YS02001907YS02006553    1.00   0.00  0.02  0.00  0.98  0.00  0.00  0.00  0.00  0.00
  YS02001910YS02001907    1.00   0.00  0.00  0.00  0.97  0.00  0.00  0.03  0.12  0.00
  YS02001915YS02001910    1.00   0.00  0.00  0.00  0.96  0.04  0.00  0.00  0.17  0.00
  YS02001918YS02001915    1.00   0.00  0.01  0.00  0.98  0.02  0.00  0.00  0.79  0.00
  YS02001920YS02001918    1.00   0.00  0.01  0.00  0.99  0.00  0.00  0.00  0.00  0.00
  YS02001923YS02001920    1.00   0.00  0.00  0.00  1.00  0.00  0.00  0.00  0.95  0.00
  YS02001926YS02001923    1.00   0.00  0.07  0.00  0.04  0.00  0.88  0.00  0.00  0.00
  YS02001929YS02001926    1.00   0.00  0.13  0.00  0.87  0.00  0.00  0.00  0.84  0.00
  YS02006553YS02006556    1.00   0.01  0.00  0.00  0.99  0.00  0.00  0.00  0.03  0.00
  YS02006556YS02006558    1.00   0.00  0.00  0.00  1.00  0.00  0.00  0.00  0.00  0.00
  YS02006558YS02006561    1.00   0.19  0.00  0.00  0.05  0.76  0.00  0.00  0.18  0.00
  YS02006561YS02001783    1.00   0.19  0.00  0.00  0.76  0.05  0.00  0.00  0.73  0.00
  YS02163301YS02001633    1.00   0.00  0.16  0.00  0.84  0.00  0.00  0.00  0.00  0.00
  YS02163601YS02164001    1.00   0.00  0.08  0.00  0.92  0.00  0.00  0.00  0.00  0.00
  YS02164001YS02001641    1.00   0.01  0.07  0.00  0.92  0.00  0.00  0.00  0.06  0.00
  
  
  *************************
  Conduit Surcharge Summary
  *************************
  
  ----------------------------------------------------------------------------
                                                           Hours        Hours 
                         --------- Hours Full --------   Above Full   Capacity
  Conduit                Both Ends  Upstream  Dnstream   Normal Flow   Limited
  ----------------------------------------------------------------------------
  WS02003072WS02003073        0.01      0.01      0.01      2.14         0.01
  WS02004404WS02004405        0.01      0.01      0.01      2.06         0.01
  WS02006109WS02006110        0.01      0.01      1.66      0.01         0.01
  WS02006110WS02006113        0.01      0.01      1.63      0.01         0.01
  WS02006111WS02006112        0.01      0.01      1.71      0.01         0.01
  WS02006228WS02006109        1.59      1.66      1.59      1.94         1.59
  WS02006229WS02006228        1.58      1.60      1.58      1.76         1.58
  WS02006230WS02006229        1.70      1.73      1.70      2.52         1.70
  WS02006231WS02006230        0.01      0.01      0.01      2.33         0.01
  WS02006232WS02006231        0.01      0.01      1.66      0.01         0.01
  WS02006234WS02006232        1.55      1.55      1.66      0.01         0.01
  WS02006235WS02006234        0.01      0.01      1.60      2.25         0.01
  WS02006238WS02006235        1.62      1.62      1.68      0.01         0.01
  WS02006239WS02006238        1.63      1.66      1.63      1.82         1.63
  WS02006240WS02006239        1.61      1.63      1.61      1.84         1.61
  WS02006242WS02006240        1.62      1.62      1.72      1.94         0.01
  WS02006243WS02006242        1.64      1.64      1.70      0.01         0.01
  WS02006245WS02006243        1.63      1.64      1.63      1.91         1.63
  WS02006247WS02006245        1.63      1.66      1.63      2.20         1.63
  WS02006248WS02006247        1.64      1.64      1.65      0.01         0.01
  WS02006249WS02006248        1.63      1.63      1.65      2.19         0.01
  WS02006251WS02006249        1.65      1.65      1.65      1.98         1.64
  WS02006252WS02006251        2.01      2.01      2.01      2.01         0.01
  WS02006256WS02006235        2.28      2.29      3.15      0.02         0.01
  YS02001580YS02001583        0.35      0.35      0.39      0.01         0.01
  YS02001583YS02001586        0.36      0.36      0.49      0.01         0.01
  YS02001586YS02001590        0.50      0.50      0.56      0.01         0.01
  YS02001590YS02001593        0.56      0.56      0.57      0.58         0.01
  YS02001593YS02001596        0.57      0.57      0.67      0.01         0.01
  YS02001596YS02001600        0.72      0.72      0.91      0.01         0.01
  YS02001600YS02001601        1.07      1.07      6.21      0.01         0.01
  YS02001601YS02001602        6.11      6.11      6.22      0.74         0.01
  YS02001602YS02001605        6.09      6.09      6.11      1.85         0.01
  YS02001605YS02001607        6.06      6.09      6.13      0.97         0.89
  YS02001607YS02001610        0.61      0.61      0.65      0.01         0.01
  YS02001610YS02001613        0.61      0.61      0.65      0.01         0.01
  YS02001613YS02001616        0.56      0.56      0.61      0.01         0.01
  YS02001616YS02001619        0.54      0.54      0.56      0.01         0.01
  YS02001619YS02001622        0.54      0.54      0.54      0.50         0.44
  YS02001622YS02001625        0.54      0.54      1.17      0.01         0.01
  YS02001625YS02001629        0.48      0.48      1.17      0.01         0.01
  YS02001629YS02163301        5.65      5.65      5.97      0.04         0.11
  YS02001633YS02163601        6.06      6.06      6.06      0.28         0.28
  YS02001641YS02001644        6.04      6.05      6.04      1.07         0.93
  YS02001644YS02001647        1.04      1.04      6.04      0.04         0.01
  YS02001647YS02001649        1.04      1.04      6.00      0.01         0.01
  YS02001649YS02001757        6.00      6.00      6.00      0.23         0.19
  YS02001652YS02001649        1.05      1.05      6.00      0.01         0.01
  YS02001655YS02001652        0.17      0.17      0.67      0.01         0.01
  YS02001658YS02001655        0.04      0.04      0.17      0.01         0.01
  YS02001661YS02001658        0.01      0.01      0.04      0.01         0.01
  YS02001664YS02001661        0.01      0.01      0.01      0.01         0.01
  YS02001745YS02001748        0.01      0.01      0.01      0.01         0.01
  YS02001748YS02001751        0.02      0.02      0.08      0.01         0.01
  YS02001751YS02001754        0.08      0.08      0.23      0.01         0.01
  YS02001754YS02001757        0.64      0.64      6.00      0.01         0.01
  YS02001757CaochengTiaoxuchi        5.94      6.00      5.94      0.23         0.14
  YS02001759YS02001757        5.99      5.99      6.00      0.01         0.01
  YS02001762YS02001759        5.99      5.99      5.99      0.01         0.02
  YS02001765YS02001762        5.99      5.99      5.99      0.01         0.01
  YS02001767YS02001765        5.99      5.99      5.99      0.01         0.02
  YS02001770YS02001767        5.99      5.99      5.99      0.33         0.35
  YS02001774YS02001770        5.89      5.89      5.99      0.01         0.01
  YS02001779YS02001774        0.21      0.21      5.99      0.01         0.01
  YS02001783YS02001784        0.46      0.46      0.46      0.44         0.40
  YS02001784YS02001785        0.45      0.46      0.45      0.62         0.45
  YS02001786YS02001788        0.45      0.45      0.45      0.54         0.45
  YS02001788YS02001790        0.45      0.45      6.01      0.01         0.01
  YS02001790YS02001791        6.01      6.01      6.02      0.25         0.24
  YS02001791YS02001793        6.02      6.02      6.03      0.01         0.01
  YS02001793JiankangQianchi        6.03      6.03      6.21      0.01         0.01
  YS02001882YS02001884        0.34      0.34      0.35      0.01         0.01
  YS02001884YS02001887        0.36      0.36      0.37      0.01         0.01
  YS02001887YS02001890        0.38      0.38      0.39      0.01         0.01
  YS02001890YS02001895        0.33      0.33      0.40      0.01         0.01
  YS02001895YS02001898        0.32      0.32      0.33      0.01         0.01
  YS02001898YS02001901        0.33      0.33      0.36      0.01         0.01
  YS02001901YS02001904        0.35      0.35      0.36      0.01         0.01
  YS02001904YS02001907        0.35      0.35      0.54      0.01         0.01
  YS02001907YS02006553        0.63      0.63      0.67      0.01         0.01
  YS02001910YS02001907        0.40      0.40      0.52      0.01         0.01
  YS02001915YS02001910        0.33      0.33      0.40      0.01         0.01
  YS02001918YS02001915        0.26      0.26      0.33      0.01         0.01
  YS02001920YS02001918        0.26      0.26      0.27      0.01         0.01
  YS02001923YS02001920        0.22      0.22      0.27      0.01         0.01
  YS02001926YS02001923        0.01      0.01      0.01      0.01         0.01
  YS02001929YS02001926        0.01      0.01      0.01      0.01         0.01
  YS02006553YS02006556        0.47      0.47      0.53      0.01         0.01
  YS02006556YS02006558        0.50      0.50      0.54      0.01         0.01
  YS02006558YS02006561        0.35      0.46      0.35      0.59         0.35
  YS02006561YS02001783        0.29      0.29      0.46      0.01         0.01
  YS02163301YS02001633        5.97      5.97      6.06      0.01         0.01
  YS02163601YS02164001        6.05      6.05      6.06      0.05         0.01
  YS02164001YS02001641        6.05      6.05      6.05      0.51         0.49
  
  
  ***************
  Pumping Summary
  ***************
  
  ---------------------------------------------------------------------------------------------------------
                                                  Min       Avg       Max     Total     Power    % Time Off
                        Percent   Number of      Flow      Flow      Flow    Volume     Usage    Pump Curve
  Pump                 Utilized   Start-Ups       LPS       LPS       LPS  10^6 ltr     Kw-hr    Low   High
  ---------------------------------------------------------------------------------------------------------
  CC-R1                    1.06           1      0.00    683.00    683.00     0.208      3.51    0.0  100.0
  CC-R2                    1.06           1      0.00    683.00    683.00     0.208      3.51    0.0  100.0
  CC-S1                   26.99           3      0.00    200.00    200.00     1.555      7.52    0.0   45.4
  CC-S2                   26.16           4      0.00    200.00    200.00     1.507      7.37    0.0   43.6
  JK-R1                    0.97           2      0.00    347.46   1000.00     0.078      0.47    0.0    0.0
  JK-R2                    0.97           2      0.00    347.46   1000.00     0.078      0.47    0.0    0.0
  JK-S                     0.97           2      0.00    104.30    300.00     0.023      0.44    0.0    0.0
  XR-1                   100.00           1      0.00     95.00     95.00     2.736     68.18    0.0    0.0
  XR-2                   100.00           1      0.00     95.00     95.00     2.736     68.18    0.0    0.0
  XR-3                   100.00           1      0.00     95.00     95.00     2.736     68.18    0.0    0.0
  XR-4                   100.00           1      0.00     95.00     95.00     2.736     68.18    0.0    0.0
  

  Analysis begun on:  Wed Nov  5 16:30:20 2025
  Analysis ended on:  Wed Nov  5 16:30:22 2025
  Total elapsed time: 00:00:02