
  EPA STORM WATER MANAGEMENT MODEL - VERSION 5.2 (Build 5.2.4)
  PYSWMM TOOLKIT API - VERSION v1.0 (2023-11-27)
  ------------------------------------------------------------

  WARNING 04: minimum elevation drop used for Conduit WS02004404WS02004405
  WARNING 03: negative offset ignored for Link YS02001904YS02001907
  
  ****************
  Analysis Options
  ****************
  Flow Units ............... LPS
  Process Models:
    Rainfall/Runoff ........ YES
    RDII ................... NO
    Snowmelt ............... NO
    Groundwater ............ NO
    Flow Routing ........... YES
    Ponding Allowed ........ NO
    Water Quality .......... NO
  Infiltration Method ...... HORTON
  Flow Routing Method ...... DYNWAVE
  Surcharge Method ......... EXTRAN
  Starting Date ............ 08/28/2015 08:00:00
  Ending Date .............. 08/28/2015 16:00:00
  Antecedent Dry Days ...... 8.0
  Report Time Step ......... 00:01:00
  Wet Time Step ............ 00:01:00
  Dry Time Step ............ 00:01:00
  Routing Time Step ........ 30.00 sec
  Variable Time Step ....... YES
  Maximum Trials ........... 8
  Number of Threads ........ 4
  Head Tolerance ........... 0.001500 m
  
  
  **************************        Volume         Depth
  Runoff Quantity Continuity     hectare-m            mm
  **************************     ---------       -------
  Initial LID Storage ......         0.049         1.488
  Total Precipitation ......         1.632        49.204
  Evaporation Loss .........         0.000         0.000
  Infiltration Loss ........         0.072         2.182
  Surface Runoff ...........         1.191        35.891
  Final Storage ............         0.419        12.639
  Continuity Error (%) .....        -0.039
  
  
  **************************        Volume        Volume
  Flow Routing Continuity        hectare-m      10^6 ltr
  **************************     ---------     ---------
  Dry Weather Inflow .......         0.602         6.020
  Wet Weather Inflow .......         1.190        11.900
  Groundwater Inflow .......         0.000         0.000
  RDII Inflow ..............         0.000         0.000
  External Inflow ..........         0.105         1.045
  External Outflow .........         1.483        14.830
  Flooding Loss ............         0.382         3.821
  Evaporation Loss .........         0.000         0.000
  Exfiltration Loss ........         0.000         0.000
  Initial Stored Volume ....         0.303         3.031
  Final Stored Volume ......         0.792         7.916
  Continuity Error (%) .....       -20.780
  
  
  *************************
  Highest Continuity Errors
  *************************
  Node YS02001774 (27.68%)
  Node YS02001583 (-17.29%)
  Node WS02006256 (-6.16%)
  Node YS02001884 (5.11%)
  Node YS02001754 (4.34%)
  
  
  ***************************
  Time-Step Critical Elements
  ***************************
  Link WS02001212WS02001213 (35.75%)
  Link WS02006235WS02006234 (22.11%)
  Link WS02006238WS02006235 (13.58%)
  Link YS02006556YS02006558 (6.42%)
  Link WS02003066WSF200 (5.61%)
  
  
  ********************************
  Highest Flow Instability Indexes
  ********************************
  Link WS02006113WS02006111 (36)
  Link WS02006238WS02006235 (33)
  Link WS02006256WS02006235 (33)
  Link WS02006252WS02006251 (32)
  Link WS02006111WS02006112 (29)
  
  
  *********************************
  Most Frequent Nonconverging Nodes
  *********************************
  Node CC-1 (15.66%)
  Node CC-2 (15.66%)
  Node JK-1 (15.66%)
  Node JK-2 (15.66%)
  Node WSC (15.66%)
  
  
  *************************
  Routing Time Step Summary
  *************************
  Minimum Time Step           :     0.06 sec
  Average Time Step           :     3.86 sec
  Maximum Time Step           :     6.46 sec
  % of Time in Steady State   :     0.00
  Average Iterations per Step :     3.63
  % of Steps Not Converging   :    15.66
  Time Step Frequencies       :
     30.000 - 13.228 sec      :     0.00 %
     13.228 -  5.833 sec      :    34.38 %
      5.833 -  2.572 sec      :    40.48 %
      2.572 -  1.134 sec      :    15.22 %
      1.134 -  0.500 sec      :     9.92 %
  
  
  ***************************
  Subcatchment Runoff Summary
  ***************************
  
  ------------------------------------------------------------------------------------------------------------------------------
                            Total      Total      Total      Total     Imperv       Perv      Total       Total     Peak  Runoff
                           Precip      Runon       Evap      Infil     Runoff     Runoff     Runoff      Runoff   Runoff   Coeff
  Subcatchment                 mm         mm         mm         mm         mm         mm         mm    10^6 ltr      LPS
  ------------------------------------------------------------------------------------------------------------------------------
  sub60                     49.20       0.00       0.00       1.33      32.50       3.23      35.72        0.47   332.19   0.726
  sub61                     49.20       0.00       0.00       2.03      32.47       4.81      37.28        0.68   477.04   0.758
  sub62                     49.20       0.00       0.00       0.90      34.61       2.19      36.80        1.01   649.22   0.748
  sub63                     49.20       0.00       0.00       3.68      27.81       8.00      35.81        0.81   513.85   0.728
  sub64                     49.20       0.00       0.00       1.77      31.66       3.98      35.64        0.86   511.48   0.724
  sub65                     49.20       0.00       0.00       1.63      34.16       3.63      37.80        1.04   589.34   0.768
  sub66                     49.20       0.00       0.00       4.23      26.88       7.09      33.96        1.58   721.27   0.690
  sub67                     49.20       0.00       0.00       0.91      35.49       2.27      37.76        0.70   531.95   0.767
  sub68                     49.20       0.00       0.00       1.56      31.34       3.69      35.03        0.96   648.60   0.712
  sub69                     49.20       0.00       0.00       1.39      33.07       4.46      37.53        1.39   779.16   0.763
  sub70                     49.20       0.00       0.00       4.58      26.48       9.12      35.60        1.03   419.26   0.724
  sub71                     49.20       0.00       0.00       0.83      31.44       1.98      33.42        0.87   524.97   0.679
  sub72                     49.20       0.00       0.00       0.79      33.95       1.84      35.79        0.49   261.51   0.727
  

  ***********************
  LID Performance Summary
  ***********************

  --------------------------------------------------------------------------------------------------------------------
                                         Total      Evap     Infil   Surface    Drain    Initial     Final  Continuity
                                        Inflow      Loss      Loss   Outflow   Outflow   Storage   Storage       Error
  Subcatchment      LID Control             mm        mm        mm        mm        mm        mm        mm           %
  --------------------------------------------------------------------------------------------------------------------
  sub60             GreenRoof            49.20      0.00      0.00      0.00      0.00      7.05     56.29       -0.06
  sub61             GreenRoof            49.20      0.00      0.00      0.00      0.00      7.05     56.29       -0.06
  sub62             GreenRoof            49.20      0.00      0.00      0.00      0.00      7.05     56.29       -0.06
  sub63             GreenRoof            49.20      0.00      0.00      0.00      0.00      7.05     56.29       -0.06
  sub64             GreenRoof            49.20      0.00      0.00      0.00      0.00      7.05     56.29       -0.06
  sub65             GreenRoof            49.20      0.00      0.00      0.00      0.00      7.05     56.29       -0.06
  sub66             GreenRoof            49.20      0.00      0.00      0.00      0.00      7.05     56.29       -0.06
  sub67             GreenRoof            49.20      0.00      0.00      0.00      0.00      7.05     56.29       -0.06
  sub68             GreenRoof            49.20      0.00      0.00      0.00      0.00      7.05     56.29       -0.06
  sub69             GreenRoof            49.20      0.00      0.00      0.00      0.00      7.05     56.29       -0.06
  sub70             GreenRoof            49.20      0.00      0.00      0.00      0.00      7.05     56.29       -0.06
  sub71             GreenRoof            49.20      0.00      0.00      0.00      0.00      7.05     56.29       -0.06
  sub72             GreenRoof            49.20      0.00      0.00      0.00      0.00      7.05     56.29       -0.06
  
  ******************
  Node Depth Summary
  ******************
  
  ---------------------------------------------------------------------------------
                                 Average  Maximum  Maximum  Time of Max    Reported
                                   Depth    Depth      HGL   Occurrence   Max Depth
  Node                 Type       Meters   Meters   Meters  days hr:min      Meters
  ---------------------------------------------------------------------------------
  WS02001211           JUNCTION     0.76     0.78     5.62     0  02:33        0.78
  WS02001212           JUNCTION     0.46     0.49     5.55     0  02:29        0.49
  WS02001213           JUNCTION     0.68     0.73     5.49     0  02:28        0.73
  WS02003059           JUNCTION     0.72     0.78     5.47     0  02:28        0.78
  WS02003060           JUNCTION     0.37     0.47     5.41     0  02:27        0.47
  WS02003066           JUNCTION     0.15     0.27     5.82     0  02:26        0.27
  WS02003067           JUNCTION     0.41     0.65     5.97     0  02:26        0.65
  WS02003069           JUNCTION     0.42     0.54     5.12     0  02:28        0.54
  WS02003072           JUNCTION     0.48     0.60     4.97     0  02:32        0.60
  WS02003073           JUNCTION     0.29     0.37     4.43     0  02:33        0.37
  WS02004138           JUNCTION     0.19     0.20     7.45     0  00:00        0.19
  WS02004139           JUNCTION     0.71     0.73     5.64     0  02:34        0.73
  WS02004401           JUNCTION     0.49     0.75     6.75     0  02:23        0.75
  WS02004402           JUNCTION     0.53     0.78     6.74     0  02:23        0.78
  WS02004403           JUNCTION     0.55     0.80     6.73     0  02:23        0.80
  WS02004404           JUNCTION     0.62     0.88     6.73     0  02:24        0.88
  WS02004405           JUNCTION     0.62     0.87     6.72     0  03:18        0.87
  WS02004406           JUNCTION     0.64     0.88     6.71     0  02:24        0.88
  WS02004407           JUNCTION     0.12     0.26     6.57     0  02:24        0.26
  WS02004409           JUNCTION     0.28     0.57     6.34     0  02:25        0.57
  WS02004410           JUNCTION     0.31     0.59     6.31     0  02:25        0.59
  WS02004411           JUNCTION     0.34     0.61     6.29     0  02:25        0.61
  WS02004412           JUNCTION     0.36     0.62     6.26     0  02:27        0.62
  WS02004413           JUNCTION     0.52     0.79     6.26     0  02:26        0.79
  WS02006109           JUNCTION     0.54     0.84     7.45     0  01:49        0.84
  WS02006110           JUNCTION     0.55     0.82     7.41     0  02:22        0.82
  WS02006111           JUNCTION     0.13     0.25     6.96     0  02:20        0.25
  WS02006112           JUNCTION     0.64     0.93     6.82     0  02:23        0.93
  WS02006113           JUNCTION     0.20     0.39     7.29     0  02:22        0.39
  WS02006115           JUNCTION     0.37     0.65     6.78     0  02:22        0.65
  WS02006116           JUNCTION     0.46     0.73     6.77     0  02:23        0.73
  WS02006228           JUNCTION     0.52     0.85     7.50     0  01:49        0.85
  WS02006229           JUNCTION     0.49     0.83     7.52     0  01:49        0.83
  WS02006230           JUNCTION     0.48     0.86     7.60     0  02:23        0.86
  WS02006231           JUNCTION     0.27     0.60     7.72     0  02:23        0.60
  WS02006232           JUNCTION     0.39     0.75     7.79     0  02:20        0.75
  WS02006234           JUNCTION     0.31     0.71     7.87     0  02:23        0.71
  WS02006235           JUNCTION     0.34     0.77     7.93     0  02:20        0.76
  WS02006238           JUNCTION     0.37     0.81     7.95     0  02:18        0.81
  WS02006239           JUNCTION     0.34     0.80     8.01     0  02:18        0.80
  WS02006240           JUNCTION     0.33     0.79     8.08     0  02:11        0.79
  WS02006242           JUNCTION     0.39     0.90     8.17     0  02:24        0.90
  WS02006243           JUNCTION     0.34     0.84     8.26     0  02:17        0.84
  WS02006245           JUNCTION     0.35     0.86     8.34     0  02:04        0.85
  WS02006247           JUNCTION     0.36     0.89     8.39     0  02:23        0.89
  WS02006248           JUNCTION     0.34     0.86     8.44     0  02:33        0.85
  WS02006249           JUNCTION     0.37     0.89     8.49     0  02:28        0.89
  WS02006251           JUNCTION     0.37     0.91     8.58     0  02:22        0.91
  WS02006252           JUNCTION     0.25     1.50     9.74     0  00:00        0.59
  WS02006256           JUNCTION     0.57     2.35     9.28     0  00:00        2.35
  WSF200               JUNCTION     0.12     0.25     5.48     0  02:27        0.25
  YS02001580           JUNCTION     0.10     1.05     9.59     0  01:37        0.77
  YS02001583           JUNCTION     0.13     1.14     9.64     0  01:37        0.82
  YS02001586           JUNCTION     0.20     1.13     9.30     0  01:36        1.13
  YS02001590           JUNCTION     0.30     1.40     9.26     0  01:36        1.37
  YS02001593           JUNCTION     0.24     1.46     9.32     0  01:36        1.28
  YS02001596           JUNCTION     0.47     1.78     9.20     0  01:36        1.65
  YS02001600           JUNCTION     0.70     1.87     9.00     0  01:36        1.86
  YS02001601           JUNCTION     0.94     2.06     8.90     0  01:36        2.06
  YS02001602           JUNCTION     0.86     1.87     8.77     0  01:37        1.87
  YS02001605           JUNCTION     0.83     1.78     8.68     0  01:37        1.78
  YS02001607           JUNCTION     0.82     1.68     8.53     0  01:37        1.64
  YS02001610           JUNCTION     0.86     1.68     8.48     0  01:37        1.68
  YS02001613           JUNCTION     0.82     1.70     8.54     0  01:37        1.65
  YS02001616           JUNCTION     0.76     1.61     8.52     0  01:37        1.58
  YS02001619           JUNCTION     0.75     1.61     8.54     0  01:37        1.56
  YS02001622           JUNCTION     0.76     1.61     8.51     0  01:37        1.54
  YS02001625           JUNCTION     1.01     1.78     8.38     0  01:37        1.78
  YS02001629           JUNCTION     1.04     1.85     8.40     0  01:37        1.85
  YS02001633           JUNCTION     1.12     2.04     8.49     0  01:39        1.93
  YS02001641           JUNCTION     1.10     1.96     8.40     0  01:39        1.82
  YS02001644           JUNCTION     1.09     1.92     8.35     0  01:39        1.79
  YS02001647           JUNCTION     0.92     1.73     8.34     0  01:39        1.50
  YS02001649           JUNCTION     1.08     1.83     8.22     0  01:39        1.60
  YS02001652           JUNCTION     0.91     2.01     8.61     0  01:39        1.42
  YS02001655           JUNCTION     0.70     2.14     8.99     0  01:39        1.20
  YS02001658           JUNCTION     0.46     1.71     8.86     0  01:41        0.95
  YS02001661           JUNCTION     0.24     0.73     8.14     0  01:42        0.72
  YS02001664           JUNCTION     0.05     0.27     8.20     0  01:39        0.27
  YS02001745           JUNCTION     0.13     0.47     7.98     0  01:41        0.44
  YS02001748           JUNCTION     0.49     0.89     7.96     0  01:41        0.80
  YS02001751           JUNCTION     0.65     1.88     8.76     0  01:40        0.99
  YS02001754           JUNCTION     0.88     1.89     8.49     0  01:40        1.25
  YS02001757           JUNCTION     1.17     1.84     8.10     0  01:40        1.59
  YS02001759           JUNCTION     1.09     1.75     8.11     0  01:40        1.57
  YS02001762           JUNCTION     1.06     1.75     8.15     0  01:39        1.57
  YS02001765           JUNCTION     1.02     2.03     8.48     0  01:39        1.55
  YS02001767           JUNCTION     0.99     2.03     8.52     0  01:39        1.55
  YS02001770           JUNCTION     0.99     1.90     8.39     0  01:39        1.60
  YS02001774           JUNCTION     1.05     1.88     8.30     0  01:39        1.68
  YS02001779           JUNCTION     0.82     1.68     8.37     0  01:39        1.42
  YS02001783           JUNCTION     0.51     2.16     8.30     0  01:42        1.47
  YS02001784           JUNCTION     0.56     2.20     8.26     0  01:42        1.41
  YS02001786           JUNCTION     0.56     2.19     8.22     0  01:42        1.26
  YS02001788           JUNCTION     0.57     2.17     8.14     0  01:42        1.12
  YS02001790           JUNCTION     0.83     1.96     7.60     0  01:42        1.28
  YS02001791           JUNCTION     0.94     1.78     7.25     0  01:42        1.27
  YS02001793           JUNCTION     1.44     2.04     6.87     0  01:42        1.80
  YS02001882           JUNCTION     0.32     1.78     8.50     0  01:38        1.60
  YS02001884           JUNCTION     0.40     1.85     8.47     0  01:38        1.69
  YS02001887           JUNCTION     0.48     1.87     8.41     0  01:38        1.76
  YS02001890           JUNCTION     0.51     1.81     8.32     0  01:38        1.79
  YS02001895           JUNCTION     0.29     1.67     8.41     0  01:38        1.53
  YS02001898           JUNCTION     0.29     1.70     8.44     0  01:38        1.54
  YS02001901           JUNCTION     0.40     1.68     8.29     0  01:39        1.66
  YS02001904           JUNCTION     0.38     1.64     8.27     0  01:39        1.63
  YS02001907           JUNCTION     0.69     1.96     8.25     0  01:39        1.96
  YS02001910           JUNCTION     0.50     1.96     8.47     0  01:39        1.95
  YS02001915           JUNCTION     0.32     1.90     8.62     0  01:39        1.89
  YS02001918           JUNCTION     0.17     1.81     8.88     0  01:39        1.81
  YS02001920           JUNCTION     0.25     2.14     9.15     0  01:39        1.79
  YS02001923           JUNCTION     0.13     2.03     9.29     0  01:39        1.49
  YS02001926           JUNCTION     0.16     1.90     9.35     0  01:39        1.31
  YS02001929           JUNCTION     0.09     1.78     9.47     0  01:39        1.12
  YS02006553           JUNCTION     0.70     2.12     8.40     0  01:42        1.96
  YS02006556           JUNCTION     0.67     2.28     8.59     0  01:42        1.92
  YS02006558           JUNCTION     0.71     2.38     8.65     0  01:42        1.97
  YS02006561           JUNCTION     0.18     1.62     8.28     0  01:42        1.08
  YS02163301           JUNCTION     1.06     1.93     8.45     0  01:39        1.87
  YS02163601           JUNCTION     1.15     2.05     8.45     0  01:39        1.93
  YS02164001           JUNCTION     1.09     1.97     8.43     0  01:39        1.82
  CC-1                 OUTFALL      0.00     0.00     0.00     0  00:00        0.00
  CC-2                 OUTFALL      0.00     0.00     0.00     0  00:00        0.00
  JK-1                 OUTFALL      0.00     0.00     0.00     0  00:00        0.00
  JK-2                 OUTFALL      0.00     0.00     0.00     0  00:00        0.00
  WSC                  OUTFALL      0.29     0.37     1.04     0  02:33        0.37
  CC-storage           STORAGE      1.77     2.18     7.68     0  07:48        2.18
  JK-storage           STORAGE      4.77     5.80     6.60     0  01:42        5.80
  XR-storage           STORAGE      0.31     5.00     3.00     0  00:00        4.91
  
  
  *******************
  Node Inflow Summary
  *******************
  
  -------------------------------------------------------------------------------------------------
                                  Maximum  Maximum                  Lateral       Total        Flow
                                  Lateral    Total  Time of Max      Inflow      Inflow     Balance
                                   Inflow   Inflow   Occurrence      Volume      Volume       Error
  Node                 Type           LPS      LPS  days hr:min    10^6 ltr    10^6 ltr     Percent
  -------------------------------------------------------------------------------------------------
  WS02001211           JUNCTION      7.35   389.13     0  03:28       0.212        11.1       0.348
  WS02001212           JUNCTION      0.00   390.85     0  03:31           0        11.1       0.207
  WS02001213           JUNCTION      0.00   392.60     0  03:30           0        11.1       0.238
  WS02003059           JUNCTION      0.00   395.65     0  03:30           0          11       0.328
  WS02003060           JUNCTION     16.53   816.06     0  02:27       0.476        14.3       0.150
  WS02003066           JUNCTION      0.00   411.87     0  02:26           0        2.83       0.042
  WS02003067           JUNCTION      0.00   411.86     0  02:26           0        2.84       0.141
  WS02003069           JUNCTION      0.32   816.35     0  02:27     0.00922        14.3       0.160
  WS02003072           JUNCTION      0.00   816.34     0  02:32           0        14.3       0.208
  WS02003073           JUNCTION      1.82   818.16     0  02:32      0.0524        14.3       0.223
  WS02004138           JUNCTION      0.00   380.00     0  00:00           0        10.9       0.059
  WS02004139           JUNCTION      0.32   395.52     0  00:00     0.00924        10.9       0.407
  WS02004401           JUNCTION      0.00   412.04     0  02:23           0        2.93       0.338
  WS02004402           JUNCTION      0.00   411.92     0  02:23           0        2.92       0.344
  WS02004403           JUNCTION      0.00   412.00     0  02:23           0        2.91       0.338
  WS02004404           JUNCTION      0.16   412.08     0  02:24     0.00467        2.91       0.282
  WS02004405           JUNCTION      0.04   412.13     0  02:24      0.0011         2.9       0.421
  WS02004406           JUNCTION      0.00   412.22     0  02:24           0        2.89       0.707
  WS02004407           JUNCTION      0.00   412.01     0  02:24           0        2.87       0.032
  WS02004409           JUNCTION      0.00   411.95     0  02:24           0        2.87       0.078
  WS02004410           JUNCTION      0.00   411.95     0  02:25           0        2.87       0.136
  WS02004411           JUNCTION      0.00   411.91     0  02:25           0        2.86       0.178
  WS02004412           JUNCTION      0.00   411.91     0  02:26           0        2.86       0.244
  WS02004413           JUNCTION      0.00   411.93     0  02:26           0        2.85       0.440
  WS02006109           JUNCTION      1.23   412.16     0  01:55      0.0354        2.98       0.260
  WS02006110           JUNCTION      0.00   411.80     0  02:23           0        2.97       0.209
  WS02006111           JUNCTION      0.00   423.39     0  01:58           0        2.96       0.033
  WS02006112           JUNCTION      0.00   413.75     0  02:20           0        2.96       0.589
  WS02006113           JUNCTION      0.00   411.97     0  02:20           0        2.96       0.042
  WS02006115           JUNCTION      0.00   412.24     0  02:20           0        2.95       0.212
  WS02006116           JUNCTION      0.00   412.14     0  02:23           0        2.94       0.159
  WS02006228           JUNCTION      0.00   411.66     0  01:54           0        2.95       0.094
  WS02006229           JUNCTION      0.00   410.60     0  01:54           0        2.95       0.148
  WS02006230           JUNCTION     10.28   410.61     0  02:32       0.296        2.96       0.204
  WS02006231           JUNCTION      0.00   400.47     0  02:20           0        2.66      -0.120
  WS02006232           JUNCTION      0.00   400.42     0  02:23           0        2.67       0.308
  WS02006234           JUNCTION      0.00   401.59     0  02:20           0        2.66      -0.203
  WS02006235           JUNCTION      0.00   401.81     0  02:20           0        2.68       0.274
  WS02006238           JUNCTION      0.00   401.50     0  02:23           0        2.65      -0.249
  WS02006239           JUNCTION      0.00   400.89     0  02:11           0        2.64      -0.184
  WS02006240           JUNCTION      0.00   400.82     0  02:24           0        2.64      -0.034
  WS02006242           JUNCTION      0.00   400.92     0  02:19           0        2.64       0.176
  WS02006243           JUNCTION      0.00   402.01     0  02:49           0        2.65       0.282
  WS02006245           JUNCTION      0.00   403.54     0  02:22           0        2.66       0.644
  WS02006247           JUNCTION      0.00   401.17     0  01:58           0        2.67       0.233
  WS02006248           JUNCTION      0.00   401.02     0  01:55           0        2.68       0.295
  WS02006249           JUNCTION      0.00   458.97     0  00:00           0         2.7       0.628
  WS02006251           JUNCTION      0.08   401.18     0  01:47     0.00222         2.7       0.189
  WS02006252           JUNCTION      0.00   400.00     0  00:00           0         2.7      -0.040
  WS02006256           JUNCTION      0.00   300.00     0  00:00           0      0.0242      -5.801
  WSF200               JUNCTION      0.00   411.86     0  02:26           0        2.83       0.020
  YS02001580           JUNCTION      0.00   256.61     0  01:37           0     0.00481      -1.282
  YS02001583           JUNCTION      0.00   257.70     0  01:37           0      0.0144     -14.744
  YS02001586           JUNCTION    419.26   419.28     0  01:42        1.03        1.04       0.163
  YS02001590           JUNCTION      0.00   317.97     0  01:44           0       0.966      -0.017
  YS02001593           JUNCTION      0.00   318.16     0  01:47           0       0.966       0.074
  YS02001596           JUNCTION      0.00   318.09     0  01:47           0       0.965       0.184
  YS02001600           JUNCTION      0.00   318.06     0  01:47           0       0.964       0.713
  YS02001601           JUNCTION    779.16  1096.54     0  01:40        1.39        2.35       0.372
  YS02001602           JUNCTION      0.00   593.75     0  01:37           0        1.73       0.532
  YS02001605           JUNCTION      0.00   593.94     0  01:37           0        1.66       0.838
  YS02001607           JUNCTION      0.00   593.60     0  01:37           0        1.64       1.186
  YS02001610           JUNCTION      0.00   561.76     0  01:37           0        1.62       1.328
  YS02001613           JUNCTION      0.00   529.35     0  01:37           0        1.44       1.517
  YS02001616           JUNCTION      0.00   480.11     0  01:37           0        1.43       1.342
  YS02001619           JUNCTION    721.27   938.32     0  01:37        1.58        2.99       0.635
  YS02001622           JUNCTION      0.00   852.46     0  01:37           0        2.97       0.879
  YS02001625           JUNCTION      0.00   831.80     0  01:40           0        2.95       1.531
  YS02001629           JUNCTION      0.00   819.12     0  01:55           0        2.69       0.759
  YS02001633           JUNCTION    589.54  1354.64     0  01:38        1.05         3.7       0.878
  YS02001641           JUNCTION      0.00  1353.95     0  01:38           0        3.63       0.585
  YS02001644           JUNCTION    511.51  1842.46     0  01:38       0.857        4.46       0.589
  YS02001647           JUNCTION      0.00  1843.32     0  01:38           0        4.42       0.632
  YS02001649           JUNCTION      0.00  2179.87     0  01:39           0        5.17       0.734
  YS02001652           JUNCTION      0.00   585.73     0  01:42           0       0.798       2.626
  YS02001655           JUNCTION      0.15   743.15     0  01:39     0.00443       0.853       1.896
  YS02001658           JUNCTION      0.00   682.11     0  01:43           0       0.862       1.483
  YS02001661           JUNCTION      0.00   513.51     0  01:39           0       0.819       0.511
  YS02001664           JUNCTION    513.85   513.85     0  01:39       0.812       0.812      -0.031
  YS02001745           JUNCTION    332.19   332.19     0  01:39       0.469       0.476       0.701
  YS02001748           JUNCTION      0.04   522.66     0  01:40      0.0013       0.527       2.026
  YS02001751           JUNCTION      0.01   472.16     0  01:40    0.000317       0.526       3.932
  YS02001754           JUNCTION      0.26   416.51     0  01:41     0.00749        0.48       4.536
  YS02001757           JUNCTION      0.00  3198.98     0  01:41           0        7.11       1.375
  YS02001759           JUNCTION    477.08  1171.90     0  01:39       0.685        1.56       1.471
  YS02001762           JUNCTION      0.00   702.50     0  01:39           0       0.897       2.448
  YS02001765           JUNCTION      0.00   696.31     0  01:39           0       0.921       2.700
  YS02001767           JUNCTION      0.54   690.26     0  01:39      0.0154       0.956       3.829
  YS02001770           JUNCTION    649.37   673.44     0  01:40        1.01        1.04       3.094
  YS02001774           JUNCTION      0.00   445.02     0  01:39           0      0.0906      38.270
  YS02001779           JUNCTION      0.01   456.62     0  01:39    0.000144      0.0398      56.492
  YS02001783           JUNCTION      0.00  1150.08     0  01:40           0        2.78       0.252
  YS02001784           JUNCTION      1.06  1151.46     0  01:40      0.0305         2.8       0.383
  YS02001786           JUNCTION      0.06  1151.77     0  01:39     0.00162        2.79       0.487
  YS02001788           JUNCTION      0.07  1161.14     0  01:39     0.00204        2.78       0.487
  YS02001790           JUNCTION      0.15  1166.97     0  01:39     0.00446        2.77       0.638
  YS02001791           JUNCTION      0.00  1274.16     0  01:40           0        2.75       0.503
  YS02001793           JUNCTION      0.00  1198.83     0  01:40           0        2.74       0.571
  YS02001882           JUNCTION      0.00    94.10     0  01:38           0      0.0122       5.142
  YS02001884           JUNCTION      0.00   119.63     0  01:37           0      0.0478       5.386
  YS02001887           JUNCTION    532.40   548.75     0  01:38       0.715       0.748       0.575
  YS02001890           JUNCTION      0.00   558.76     0  01:38           0       0.707       0.701
  YS02001895           JUNCTION      0.00   567.11     0  01:38           0       0.701       0.228
  YS02001898           JUNCTION      0.00   573.51     0  01:38           0       0.699       0.027
  YS02001901           JUNCTION      0.00   580.64     0  01:38           0       0.702       0.452
  YS02001904           JUNCTION      0.00   582.81     0  01:38           0       0.715       0.355
  YS02001907           JUNCTION      0.00  1443.78     0  01:40           0        2.16       0.803
  YS02001910           JUNCTION      0.00   970.81     0  01:40           0        1.45       0.497
  YS02001915           JUNCTION    524.99   970.61     0  01:40       0.874         1.5       0.076
  YS02001918           JUNCTION      0.00   619.16     0  01:38           0       0.663       0.019
  YS02001920           JUNCTION      2.87   508.38     0  01:39      0.0827       0.634       0.124
  YS02001923           JUNCTION      0.04   582.55     0  01:38     0.00109       0.533      -0.205
  YS02001926           JUNCTION      0.05   931.81     0  01:39      0.0015       0.514       0.053
  YS02001929           JUNCTION    261.51   760.58     0  01:39       0.492       0.498      -0.250
  YS02006553           JUNCTION      0.00   669.62     0  01:52           0        1.84       0.644
  YS02006556           JUNCTION      0.00   669.25     0  01:52           0        1.85       0.401
  YS02006558           JUNCTION    649.48  1187.99     0  01:39       0.989        2.81       0.126
  YS02006561           JUNCTION      0.00  1186.07     0  01:39           0        2.78      -0.010
  YS02163301           JUNCTION      0.00   822.51     0  01:55           0        2.68       0.896
  YS02163601           JUNCTION      0.11  1354.54     0  01:38     0.00317        3.66       0.824
  YS02164001           JUNCTION      0.00  1354.89     0  01:38           0        3.64       0.562
  CC-1                 OUTFALL       0.00   683.00     0  00:00           0       0.208       0.000
  CC-2                 OUTFALL       0.00   683.00     0  00:00           0       0.208       0.000
  JK-1                 OUTFALL       0.00  1000.00     0  00:00           0      0.0791       0.000
  JK-2                 OUTFALL       0.00  1000.00     0  00:00           0      0.0791       0.000
  WSC                  OUTFALL       0.00   818.16     0  02:33           0        14.3       0.000
  CC-storage           STORAGE       0.00  3200.11     0  01:41           0        9.21       0.421
  JK-storage           STORAGE       0.00  1142.83     0  01:39           0        2.87       0.547
  XR-storage           STORAGE     200.00   200.00     0  00:00        5.76        6.36     -41.886
  
  
  **********************
  Node Surcharge Summary
  **********************
  
  Surcharging occurs when water rises above the top of the highest conduit.
  ---------------------------------------------------------------------
                                               Max. Height   Min. Depth
                                   Hours       Above Crown    Below Rim
  Node                 Type      Surcharged         Meters       Meters
  ---------------------------------------------------------------------
  WS02006109           JUNCTION        1.53          0.016        1.804
  WS02006228           JUNCTION        1.52          0.018        2.182
  WS02006229           JUNCTION        1.53          0.028        2.422
  WS02006232           JUNCTION        1.58          0.051        1.429
  WS02006235           JUNCTION        1.53          0.055        1.235
  WS02006238           JUNCTION        1.55          0.088        1.342
  WS02006239           JUNCTION        1.54          0.062        1.228
  WS02006240           JUNCTION        1.54          0.078        1.312
  WS02006242           JUNCTION        1.61          0.174        0.646
  WS02006243           JUNCTION        1.55          0.133        0.637
  WS02006245           JUNCTION        1.55          0.147        0.703
  WS02006247           JUNCTION        1.57          0.181        0.579
  WS02006248           JUNCTION        1.55          0.138        0.242
  WS02006249           JUNCTION        1.56          0.195        0.195
  WS02006252           JUNCTION        1.84          1.100        0.000
  WS02006256           JUNCTION        2.76          2.050        0.000
  YS02001580           JUNCTION        0.36          0.450        0.000
  YS02001583           JUNCTION        0.36          0.500        0.000
  YS02001586           JUNCTION        0.53          0.510        0.000
  YS02001590           JUNCTION        0.60          0.750        0.000
  YS02001593           JUNCTION        0.60          0.840        0.000
  YS02001596           JUNCTION        0.73          1.055        0.015
  YS02001600           JUNCTION        1.16          1.190        0.000
  YS02001601           JUNCTION        6.46          1.440        0.000
  YS02001602           JUNCTION        6.45          1.270        0.000
  YS02001605           JUNCTION        6.44          1.180        0.000
  YS02001607           JUNCTION        0.71          0.680        0.000
  YS02001610           JUNCTION        0.81          0.680        0.000
  YS02001613           JUNCTION        0.71          0.700        0.000
  YS02001616           JUNCTION        0.63          0.610        0.000
  YS02001619           JUNCTION        0.60          0.610        0.000
  YS02001622           JUNCTION        0.62          0.609        0.011
  YS02001625           JUNCTION        6.37          0.780        0.000
  YS02001629           JUNCTION        0.53          0.470        0.000
  YS02001633           JUNCTION        6.39          1.018        0.042
  YS02001641           JUNCTION        6.38          0.959        0.141
  YS02001644           JUNCTION        6.38          0.920        0.000
  YS02001647           JUNCTION        6.33          0.734        0.166
  YS02001649           JUNCTION        6.36          0.828        0.222
  YS02001652           JUNCTION        6.08          0.981        0.149
  YS02001655           JUNCTION        0.10          1.135        0.065
  YS02001658           JUNCTION        0.01          0.714        0.586
  YS02001751           JUNCTION        0.01          0.881        0.319
  YS02001754           JUNCTION        4.76          0.836        0.314
  YS02001757           JUNCTION        6.36          0.843        0.367
  YS02001759           JUNCTION        6.35          0.748        0.462
  YS02001762           JUNCTION        6.34          0.749        0.401
  YS02001765           JUNCTION        6.34          1.029        0.071
  YS02001767           JUNCTION        6.34          1.030        0.000
  YS02001770           JUNCTION        6.34          0.868        0.052
  YS02001774           JUNCTION        6.34          0.875        0.175
  YS02001779           JUNCTION        0.38          0.680        0.000
  YS02001783           JUNCTION        0.49          1.363        0.237
  YS02001784           JUNCTION        0.50          1.397        0.093
  YS02001786           JUNCTION        0.48          1.390        0.040
  YS02001788           JUNCTION        0.43          1.366        0.114
  YS02001790           JUNCTION        6.30          1.157        0.000
  YS02001791           JUNCTION        6.30          0.975        0.945
  YS02001793           JUNCTION        6.31          1.035        1.565
  YS02001882           JUNCTION        0.35          0.781        0.049
  YS02001884           JUNCTION        0.36          0.790        0.080
  YS02001887           JUNCTION        0.39          0.821        0.129
  YS02001890           JUNCTION        0.40          0.760        0.000
  YS02001895           JUNCTION        0.34          0.666        0.084
  YS02001898           JUNCTION        0.34          0.670        0.070
  YS02001901           JUNCTION        0.38          0.678        0.192
  YS02001904           JUNCTION        0.37          0.644        0.206
  YS02001907           JUNCTION        0.53          0.950        0.000
  YS02001910           JUNCTION        0.42          0.960        0.140
  YS02001915           JUNCTION        0.35          0.898        0.102
  YS02001918           JUNCTION        0.26          0.810        0.000
  YS02001920           JUNCTION        0.28          1.140        0.000
  YS02001923           JUNCTION        0.01          0.820        0.000
  YS02001926           JUNCTION        0.01          0.900        0.000
  YS02001929           JUNCTION        0.01          0.780        0.000
  YS02006553           JUNCTION        0.54          1.119        0.071
  YS02006556           JUNCTION        0.48          1.239        0.111
  YS02006558           JUNCTION        0.47          1.284        0.116
  YS02006561           JUNCTION        0.29          0.816        0.334
  YS02163301           JUNCTION        6.39          0.934        0.096
  YS02163601           JUNCTION        6.39          1.050        0.030
  YS02164001           JUNCTION        6.38          0.972        0.128
  
  
  *********************
  Node Flooding Summary
  *********************
  
  Flooding refers to all water that overflows a node, whether it ponds or not.
  --------------------------------------------------------------------------
                                                             Total   Maximum
                                 Maximum   Time of Max       Flood    Ponded
                        Hours       Rate    Occurrence      Volume     Depth
  Node                 Flooded       LPS   days hr:min    10^6 ltr    Meters
  --------------------------------------------------------------------------
  WS02006252              0.01    245.63      0  00:00       0.000     0.000
  WS02006256              0.02    293.19      0  00:00       0.005     0.000
  YS02001580              0.01    216.73      0  01:37       0.001     0.000
  YS02001583              0.01    187.66      0  01:37       0.000     0.000
  YS02001586              0.25    174.36      0  01:37       0.062     0.000
  YS02001590              0.01    121.62      0  01:36       0.000     0.000
  YS02001593              0.01     80.23      0  01:36       0.000     0.000
  YS02001600              0.01     25.49      0  01:36       0.000     0.000
  YS02001601              0.45    698.54      0  01:40       0.607     0.000
  YS02001602              0.34     62.06      0  01:53       0.065     0.000
  YS02001605              0.01     10.08      0  01:37       0.000     0.000
  YS02001607              0.01    310.05      0  01:37       0.002     0.000
  YS02001610              0.27    279.31      0  01:38       0.163     0.000
  YS02001613              0.01    249.19      0  01:37       0.001     0.000
  YS02001616              0.01     69.58      0  01:37       0.000     0.000
  YS02001619              0.01     97.44      0  01:37       0.000     0.000
  YS02001625              0.24    557.61      0  01:42       0.210     0.000
  YS02001629              0.01    125.23      0  01:37       0.001     0.000
  YS02001644              0.01     11.48      0  01:39       0.000     0.000
  YS02001767              0.01    124.76      0  01:39       0.000     0.000
  YS02001779              0.01    418.94      0  01:39       0.004     0.000
  YS02001790              0.01     50.91      0  01:42       0.000     0.000
  YS02001890              0.01    119.84      0  01:38       0.001     0.000
  YS02001907              0.20    920.88      0  01:40       0.304     0.000
  YS02001918              0.01    175.94      0  01:39       0.002     0.000
  YS02001920              0.01     59.20      0  01:39       0.000     0.000
  YS02001923              0.01    101.13      0  01:39       0.000     0.000
  YS02001926              0.01    638.18      0  01:39       0.002     0.000
  YS02001929              0.01    509.26      0  01:39       0.002     0.000
  JK-storage              6.30   1065.23      0  01:42       2.384     0.000
  
  
  **********************
  Storage Volume Summary
  **********************
  
  ------------------------------------------------------------------------------------------------
                         Average    Avg   Evap  Exfil     Maximum    Max    Time of Max    Maximum
                          Volume   Pcnt   Pcnt   Pcnt      Volume   Pcnt     Occurrence    Outflow
  Storage Unit           1000 m³   Full   Loss   Loss     1000 m³   Full    days hr:min        LPS
  ------------------------------------------------------------------------------------------------
  CC-storage               4.938   77.0    0.0    0.0       6.087   95.0       0  07:48    1783.53
  JK-storage               0.240   82.3    0.0    0.0       0.291  100.0       0  01:42    2300.00
  XR-storage               0.037    2.6    0.0    0.0       0.600   41.7       0  00:00     380.00
  
  
  ***********************
  Outfall Loading Summary
  ***********************
  
  -----------------------------------------------------------
                         Flow       Avg       Max       Total
                         Freq      Flow      Flow      Volume
  Outfall Node           Pcnt       LPS       LPS    10^6 ltr
  -----------------------------------------------------------
  CC-1                   1.37    683.00    683.00       0.208
  CC-2                   1.37    683.00    683.00       0.208
  JK-1                   1.27    347.46   1000.00       0.079
  JK-2                   1.27    347.46   1000.00       0.079
  WSC                   99.92    541.82    818.16      14.255
  -----------------------------------------------------------
  System                21.04   2602.74   3366.35      14.830
  
  
  ********************
  Link Flow Summary
  ********************
  
  -----------------------------------------------------------------------------
                                 Maximum  Time of Max   Maximum    Max/    Max/
                                  |Flow|   Occurrence   |Veloc|    Full    Full
  Link                 Type          LPS  days hr:min     m/sec    Flow   Depth
  -----------------------------------------------------------------------------
  1                    CONDUIT    818.16     0  02:33      3.15    0.28    0.37
  WS02001211WS02001212 CONDUIT    390.85     0  03:31      0.78    0.30    0.64
  WS02001212WS02001213 CONDUIT    392.60     0  03:30      1.32    0.61    0.45
  WS02001213WS02003059 CONDUIT    395.65     0  03:30      0.85    0.65    0.75
  WS02003059WS02003060 CONDUIT    399.94     0  03:30      0.95    0.26    0.63
  WS02003060WS02003069 CONDUIT    816.03     0  02:27      1.80    0.32    0.42
  WS02003066WSF200     CONDUIT    411.86     0  02:26      2.69    0.07    0.19
  WS02003067WS02003066 CONDUIT    411.87     0  02:26      1.04    0.13    0.38
  WS02003069WS02003072 CONDUIT    816.34     0  02:32      1.55    0.39    0.47
  WS02003072WS02003073 CONDUIT    816.34     0  02:32      1.64    1.76    0.45
  WS02004138WS02004139 CONDUIT    395.20     0  00:00      3.65    0.08    0.43
  WS02004139WS02001211 CONDUIT    381.78     0  03:28      0.91    0.48    0.59
  WS02004401WS02004402 CONDUIT    411.92     0  02:23      0.99    0.49    0.77
  WS02004402WS02004403 CONDUIT    412.00     0  02:23      0.99    0.59    0.79
  WS02004403WS02004404 CONDUIT    411.92     0  02:24      0.93    0.30    0.84
  WS02004404WS02004405 CONDUIT    412.09     0  02:24      1.10    4.04    0.88
  WS02004405WS02004406 CONDUIT    412.22     0  02:24      1.03    0.81    0.88
  WS02004406WS02004407 CONDUIT    412.01     0  02:24      0.89    0.18    0.57
  WS02004407WS02004409 CONDUIT    411.95     0  02:24      1.42    0.15    0.42
  WS02004409WS02004410 CONDUIT    411.95     0  02:25      0.92    0.53    0.58
  WS02004410WS02004411 CONDUIT    411.91     0  02:25      0.86    0.56    0.60
  WS02004411WS02004412 CONDUIT    411.91     0  02:26      0.81    0.59    0.61
  WS02004412WS02004413 CONDUIT    411.93     0  02:26      0.70    0.28    0.70
  WS02004413WS02003067 CONDUIT    411.86     0  02:26      0.96    0.18    0.53
  WS02006109WS02006110 CONDUIT    411.80     0  02:23      0.84    0.79    0.94
  WS02006110WS02006113 CONDUIT    411.97     0  02:20      1.03    0.37    0.75
  WS02006111WS02006112 CONDUIT    413.75     0  02:20      1.83    0.20    0.65
  WS02006112WS02006115 CONDUIT    412.24     0  02:20      0.71    0.24    0.78
  WS02006113WS02006111 CONDUIT    423.39     0  01:58      2.25    0.51    0.40
  WS02006115WS02006116 CONDUIT    412.14     0  02:23      0.98    0.53    0.66
  WS02006116WS02004401 CONDUIT    412.04     0  02:23      1.00    0.57    0.74
  WS02006228WS02006109 CONDUIT    410.93     0  01:55      1.06    1.80    1.00
  WS02006229WS02006228 CONDUIT    411.66     0  01:54      1.13    1.36    1.00
  WS02006230WS02006229 CONDUIT    410.60     0  01:54      1.22    9.14    1.00
  WS02006231WS02006230 CONDUIT    400.33     0  02:32      1.37    6.07    0.77
  WS02006232WS02006231 CONDUIT    400.47     0  02:20      1.08    0.84    0.92
  WS02006234WS02006232 CONDUIT    400.42     0  02:23      1.40    0.81    1.00
  WS02006235WS02006234 CONDUIT    401.59     0  02:20      1.30    4.24    0.99
  WS02006238WS02006235 CONDUIT    401.81     0  02:20      1.53    0.90    1.00
  WS02006239WS02006238 CONDUIT    401.50     0  02:23      1.21    1.28    1.00
  WS02006240WS02006239 CONDUIT    400.89     0  02:11      1.31    1.26    1.00
  WS02006242WS02006240 CONDUIT    400.82     0  02:24      1.18    1.59    1.00
  WS02006243WS02006242 CONDUIT    400.92     0  02:19      1.43    0.86    1.00
  WS02006245WS02006243 CONDUIT    402.01     0  02:49      1.45    1.19    1.00
  WS02006247WS02006245 CONDUIT    403.54     0  02:22      1.43    3.20    1.00
  WS02006248WS02006247 CONDUIT    401.17     0  01:58      1.44    0.87    1.00
  WS02006249WS02006248 CONDUIT    401.02     0  01:55      1.38    2.20    1.00
  WS02006251WS02006249 CONDUIT    458.97     0  00:00      1.99    1.32    1.00
  WS02006252WS02006251 CONDUIT    401.10     0  01:47     24.55    1.47    1.00
  WS02006256WS02006235 CONDUIT    288.91     0  00:00      4.23    3.06    1.00
  WSF200WS02003060     CONDUIT    411.87     0  02:27      1.43    0.09    0.30
  YS02001580YS02001583 CONDUIT    256.61     0  01:37      1.05    0.99    1.00
  YS02001583YS02001586 CONDUIT    256.76     0  01:36      1.17    0.39    1.00
  YS02001586YS02001590 CONDUIT    317.97     0  01:44      1.35    0.56    1.00
  YS02001590YS02001593 CONDUIT    318.16     0  01:47      1.13    2.00    1.00
  YS02001593YS02001596 CONDUIT    318.09     0  01:47      1.61    0.50    1.00
  YS02001596YS02001600 CONDUIT    318.06     0  01:47      1.12    0.62    1.00
  YS02001600YS02001601 CONDUIT    317.96     0  01:46      1.12    0.55    1.00
  YS02001601YS02001602 CONDUIT    593.75     0  01:37      2.10    2.14    1.00
  YS02001602YS02001605 CONDUIT    593.94     0  01:37      2.10   12.57    1.00
  YS02001605YS02001607 CONDUIT    593.60     0  01:37      2.10    3.26    1.00
  YS02001607YS02001610 CONDUIT    561.76     0  01:37      0.77    0.53    1.00
  YS02001610YS02001613 CONDUIT    529.35     0  01:37      0.72    0.61    1.00
  YS02001613YS02001616 CONDUIT    480.11     0  01:37      0.69    0.41    1.00
  YS02001616YS02001619 CONDUIT    450.05     0  02:04      0.65    0.78    1.00
  YS02001619YS02001622 CONDUIT    852.46     0  01:37      1.43    1.26    1.00
  YS02001622YS02001625 CONDUIT    831.80     0  01:40      1.06    0.44    1.00
  YS02001625YS02001629 CONDUIT    819.12     0  01:55      1.04    0.39    1.00
  YS02001629YS02163301 CONDUIT    822.51     0  01:55      1.05    1.01    1.00
  YS02001633YS02163601 CONDUIT   1354.43     0  01:38      1.72    1.42    1.00
  YS02001641YS02001644 CONDUIT   1353.00     0  01:38      1.72    4.37    1.00
  YS02001644YS02001647 CONDUIT   1843.32     0  01:38      2.35    1.08    1.00
  YS02001647YS02001649 CONDUIT   1852.41     0  01:38      2.36    0.98    1.00
  YS02001649YS02001757 CONDUIT   2180.14     0  01:39      2.78    1.32    1.00
  YS02001652YS02001649 CONDUIT    585.79     0  01:42      0.93    0.29    1.00
  YS02001655YS02001652 CONDUIT    585.73     0  01:42      1.75    0.28    1.00
  YS02001658YS02001655 CONDUIT    743.00     0  01:39      2.14    0.32    1.00
  YS02001661YS02001658 CONDUIT    682.11     0  01:43      2.43    0.27    0.81
  YS02001664YS02001661 CONDUIT    513.51     0  01:39      2.33    0.16    0.49
  YS02001745YS02001748 CONDUIT    454.87     0  01:41      2.27    0.18    0.59
  YS02001748YS02001751 CONDUIT    464.23     0  01:42      1.90    0.23    0.94
  YS02001751YS02001754 CONDUIT    416.25     0  01:41      1.75    0.20    1.00
  YS02001754YS02001757 CONDUIT    416.03     0  01:41      0.70    0.17    1.00
  YS02001757CaochengTiaoxuchi CONDUIT   3200.11     0  01:41      4.15    1.39    1.00
  YS02001759YS02001757 CONDUIT   1175.33     0  01:39      1.50    0.84    1.00
  YS02001762YS02001759 CONDUIT    707.58     0  01:39      0.90    0.82    1.00
  YS02001765YS02001762 CONDUIT    702.50     0  01:39      0.89    0.66    1.00
  YS02001767YS02001765 CONDUIT    696.31     0  01:39      0.92    0.88    1.00
  YS02001770YS02001767 CONDUIT    689.73     0  01:39      1.02    2.73    1.00
  YS02001774YS02001770 CONDUIT    445.02     0  01:39      0.57    0.28    1.00
  YS02001779YS02001774 CONDUIT    456.61     0  01:39      0.58    0.23    1.00
  YS02001783YS02001784 CONDUIT   1150.40     0  01:40      2.29    1.59    1.00
  YS02001784YS02001785 CONDUIT   1151.72     0  01:39      2.29    2.68    1.00
  YS02001786YS02001788 CONDUIT   1161.06     0  01:39      2.51    2.24    1.00
  YS02001788YS02001790 CONDUIT   1166.82     0  01:39      2.72    0.86    1.00
  YS02001790YS02001791 CONDUIT   1274.16     0  01:40      3.42    1.39    1.00
  YS02001791YS02001793 CONDUIT   1198.83     0  01:40      6.47    0.51    1.00
  YS02001793JiankangQianchi CONDUIT   1142.83     0  01:39      2.27    0.09    1.00
  YS02001882YS02001884 CONDUIT     94.10     0  01:38      0.14    0.11    1.00
  YS02001884YS02001887 CONDUIT    119.63     0  01:37      0.16    0.16    1.00
  YS02001887YS02001890 CONDUIT    558.76     0  01:38      0.71    0.96    1.00
  YS02001890YS02001895 CONDUIT    567.11     0  01:38      0.72    0.26    1.00
  YS02001895YS02001898 CONDUIT    573.51     0  01:38      0.73    1.00    1.00
  YS02001898YS02001901 CONDUIT    580.64     0  01:38      0.74    0.37    1.00
  YS02001901YS02001904 CONDUIT    582.81     0  01:38      0.74    0.90    1.00
  YS02001904YS02001907 CONDUIT    583.25     0  01:38      0.74    0.20    1.00
  YS02001907YS02006553 CONDUIT    669.62     0  01:52      0.74    0.79    1.00
  YS02001910YS02001907 CONDUIT    971.21     0  01:40      1.24    0.55    1.00
  YS02001915YS02001910 CONDUIT    970.81     0  01:40      1.24    0.48    1.00
  YS02001918YS02001915 CONDUIT    619.16     0  01:38      0.83    0.34    1.00
  YS02001920YS02001918 CONDUIT    505.51     0  01:39      0.71    0.49    1.00
  YS02001923YS02001920 CONDUIT    512.14     0  01:39      0.91    0.23    1.00
  YS02001926YS02001923 CONDUIT    699.63     0  01:39      1.14    1.00    1.00
  YS02001929YS02001926 CONDUIT    557.17     0  01:39      1.21    0.26    1.00
  YS02006553YS02006556 CONDUIT    669.25     0  01:52      0.85    0.57    1.00
  YS02006556YS02006558 CONDUIT    671.99     0  01:52      0.86    0.53    1.00
  YS02006558YS02006561 CONDUIT   1186.07     0  01:39      4.19    2.62    1.00
  YS02006561YS02001783 CONDUIT   1150.08     0  01:40      2.29    0.60    1.00
  YS02163301YS02001633 CONDUIT    824.17     0  01:55      1.05    0.77    1.00
  YS02163601YS02164001 CONDUIT   1354.89     0  01:38      1.73    1.20    1.00
  YS02164001YS02001641 CONDUIT   1353.95     0  01:38      1.72    1.85    1.00
  CC-R1                PUMP       683.00     0  00:00              1.00
  CC-R2                PUMP       683.00     0  00:00              1.00
  CC-S1                PUMP       200.00     0  00:00              1.00
  CC-S2                PUMP       200.00     0  00:00              1.00
  JK-R1                PUMP      1000.00     0  00:00              1.00
  JK-R2                PUMP      1000.00     0  00:00              1.00
  JK-S                 PUMP       300.00     0  00:00              1.00
  XR-1                 PUMP        95.00     0  00:00              1.00
  XR-2                 PUMP        95.00     0  00:00              1.00
  XR-3                 PUMP        95.00     0  00:00              1.00
  XR-4                 PUMP        95.00     0  00:00              1.00
  
  
  ***************************
  Flow Classification Summary
  ***************************
  
  -------------------------------------------------------------------------------------
                      Adjusted    ---------- Fraction of Time in Flow Class ---------- 
                       /Actual         Up    Down  Sub   Sup   Up    Down  Norm  Inlet 
  Conduit               Length    Dry  Dry   Dry   Crit  Crit  Crit  Crit  Ltd   Ctrl  
  -------------------------------------------------------------------------------------
  1                       1.00   0.00  0.00  0.00  0.00  1.00  0.00  0.00  0.18  0.00
  WS02001211WS02001212    1.00   0.00  0.00  0.00  1.00  0.00  0.00  0.00  0.00  0.00
  WS02001212WS02001213    1.00   0.00  0.00  0.00  0.33  0.00  0.67  0.00  0.00  0.00
  WS02001213WS02003059    1.00   0.00  0.00  0.00  0.99  0.00  0.00  0.00  0.00  0.00
  WS02003059WS02003060    1.00   0.00  0.00  0.00  1.00  0.00  0.00  0.00  0.00  0.00
  WS02003060WS02003069    1.00   0.00  0.00  0.00  0.99  0.01  0.00  0.00  0.00  0.00
  WS02003066WSF200        1.00   0.02  0.10  0.00  0.00  0.88  0.00  0.00  0.87  0.00
  WS02003067WS02003066    1.00   0.10  0.02  0.00  0.89  0.00  0.00  0.00  0.00  0.00
  WS02003069WS02003072    1.00   0.00  0.00  0.00  0.99  0.01  0.00  0.00  0.00  0.00
  WS02003072WS02003073    1.00   0.00  0.00  0.00  0.00  0.00  0.00  1.00  0.00  0.00
  WS02004138WS02004139    1.00   0.00  0.00  0.00  0.99  0.01  0.00  0.00  1.00  0.00
  WS02004139WS02001211    1.00   0.00  0.00  0.00  1.00  0.00  0.00  0.00  0.00  0.00
  WS02004401WS02004402    1.00   0.02  0.00  0.00  0.98  0.00  0.00  0.00  0.00  0.00
  WS02004402WS02004403    1.00   0.02  0.00  0.00  0.98  0.00  0.00  0.00  0.00  0.00
  WS02004403WS02004404    1.00   0.00  0.03  0.00  0.97  0.00  0.00  0.00  0.00  0.00
  WS02004404WS02004405    1.00   0.00  0.00  0.00  1.00  0.00  0.00  0.00  0.00  0.00
  WS02004405WS02004406    1.00   0.00  0.00  0.00  1.00  0.00  0.00  0.00  0.00  0.00
  WS02004406WS02004407    1.00   0.00  0.05  0.00  0.95  0.00  0.00  0.00  0.00  0.00
  WS02004407WS02004409    1.00   0.05  0.00  0.00  0.94  0.01  0.00  0.00  0.94  0.00
  WS02004409WS02004410    1.00   0.05  0.00  0.00  0.95  0.00  0.00  0.00  0.02  0.00
  WS02004410WS02004411    1.00   0.05  0.00  0.00  0.95  0.00  0.00  0.00  0.00  0.00
  WS02004411WS02004412    1.00   0.05  0.00  0.00  0.95  0.00  0.00  0.00  0.00  0.00
  WS02004412WS02004413    1.00   0.05  0.00  0.00  0.94  0.00  0.00  0.00  0.01  0.00
  WS02004413WS02003067    1.00   0.06  0.04  0.00  0.00  0.00  0.90  0.00  0.00  0.00
  WS02006109WS02006110    1.00   0.00  0.01  0.00  0.98  0.00  0.01  0.00  0.00  0.00
  WS02006110WS02006113    1.00   0.01  0.01  0.00  0.98  0.00  0.00  0.00  0.00  0.00
  WS02006111WS02006112    1.00   0.02  0.00  0.00  0.98  0.00  0.00  0.00  0.98  0.00
  WS02006112WS02006115    1.00   0.02  0.00  0.00  0.97  0.00  0.00  0.00  0.00  0.00
  WS02006113WS02006111    1.00   0.02  0.00  0.00  0.00  0.98  0.00  0.00  0.10  0.00
  WS02006115WS02006116    1.00   0.02  0.00  0.00  0.97  0.00  0.00  0.01  0.00  0.00
  WS02006116WS02004401    1.00   0.02  0.00  0.00  0.98  0.00  0.00  0.00  0.00  0.00
  WS02006228WS02006109    1.00   0.00  0.00  0.00  1.00  0.00  0.00  0.00  0.00  0.00
  WS02006229WS02006228    1.00   0.00  0.00  0.00  0.99  0.00  0.00  0.01  0.00  0.00
  WS02006230WS02006229    1.00   0.00  0.00  0.00  0.99  0.00  0.00  0.01  0.00  0.00
  WS02006231WS02006230    1.00   0.00  0.00  0.00  0.20  0.00  0.79  0.00  0.00  0.00
  WS02006232WS02006231    1.00   0.00  0.00  0.00  0.99  0.00  0.01  0.00  0.00  0.00
  WS02006234WS02006232    1.00   0.00  0.00  0.00  1.00  0.00  0.00  0.00  0.56  0.00
  WS02006235WS02006234    1.00   0.00  0.00  0.00  0.40  0.00  0.60  0.00  0.00  0.00
  WS02006238WS02006235    1.00   0.00  0.00  0.00  1.00  0.00  0.00  0.00  0.00  0.00
  WS02006239WS02006238    1.00   0.00  0.00  0.00  1.00  0.00  0.00  0.00  0.65  0.00
  WS02006240WS02006239    1.00   0.00  0.00  0.00  0.31  0.00  0.00  0.69  0.01  0.00
  WS02006242WS02006240    1.00   0.00  0.00  0.00  0.99  0.00  0.01  0.00  0.00  0.00
  WS02006243WS02006242    1.00   0.00  0.00  0.00  0.99  0.00  0.00  0.01  0.73  0.00
  WS02006245WS02006243    1.00   0.00  0.00  0.00  0.36  0.00  0.00  0.64  0.00  0.00
  WS02006247WS02006245    1.00   0.00  0.00  0.00  0.99  0.00  0.00  0.01  0.00  0.00
  WS02006248WS02006247    1.00   0.00  0.00  0.00  0.99  0.00  0.00  0.01  0.12  0.00
  WS02006249WS02006248    1.00   0.00  0.00  0.00  0.26  0.00  0.74  0.00  0.00  0.00
  WS02006251WS02006249    1.00   0.00  0.00  0.00  1.00  0.00  0.00  0.00  0.74  0.00
  WS02006252WS02006251    1.00   0.00  0.76  0.00  0.00  0.00  0.24  0.00  0.00  0.00
  WS02006256WS02006235    1.00   0.00  0.00  0.00  1.00  0.00  0.00  0.00  0.00  0.00
  WSF200WS02003060        1.00   0.00  0.02  0.00  0.98  0.00  0.00  0.00  0.69  0.00
  YS02001580YS02001583    1.00   0.20  0.63  0.00  0.17  0.00  0.00  0.00  0.73  0.00
  YS02001583YS02001586    1.00   0.51  0.27  0.00  0.22  0.00  0.00  0.00  0.73  0.00
  YS02001586YS02001590    1.00   0.13  0.00  0.00  0.36  0.04  0.00  0.48  0.31  0.00
  YS02001590YS02001593    1.00   0.13  0.01  0.00  0.09  0.00  0.77  0.00  0.00  0.00
  YS02001593YS02001596    1.00   0.14  0.00  0.00  0.74  0.05  0.00  0.08  0.69  0.00
  YS02001596YS02001600    1.00   0.14  0.00  0.00  0.81  0.00  0.00  0.05  0.01  0.00
  YS02001600YS02001601    1.00   0.13  0.01  0.00  0.86  0.00  0.00  0.00  0.04  0.00
  YS02001601YS02001602    1.00   0.13  0.01  0.00  0.86  0.00  0.00  0.00  0.00  0.00
  YS02001602YS02001605    1.00   0.14  0.00  0.00  0.86  0.00  0.00  0.00  0.00  0.00
  YS02001605YS02001607    1.00   0.14  0.00  0.00  0.86  0.00  0.00  0.00  0.00  0.00
  YS02001607YS02001610    1.00   0.13  0.01  0.00  0.86  0.00  0.00  0.00  0.02  0.00
  YS02001610YS02001613    1.00   0.13  0.00  0.00  0.87  0.00  0.00  0.00  0.01  0.00
  YS02001613YS02001616    1.00   0.13  0.00  0.00  0.87  0.00  0.00  0.00  0.00  0.00
  YS02001616YS02001619    1.00   0.13  0.00  0.00  0.87  0.00  0.00  0.00  0.00  0.00
  YS02001619YS02001622    1.00   0.13  0.00  0.00  0.87  0.00  0.00  0.00  0.00  0.00
  YS02001622YS02001625    1.00   0.13  0.00  0.00  0.87  0.00  0.00  0.00  0.05  0.00
  YS02001625YS02001629    1.00   0.13  0.05  0.00  0.80  0.00  0.02  0.00  0.00  0.00
  YS02001629YS02163301    1.00   0.16  0.01  0.00  0.83  0.00  0.00  0.00  0.00  0.00
  YS02001633YS02163601    1.00   0.00  0.01  0.00  0.99  0.00  0.00  0.00  0.15  0.00
  YS02001641YS02001644    1.00   0.00  0.01  0.00  0.99  0.00  0.00  0.00  0.00  0.00
  YS02001644YS02001647    1.00   0.00  0.17  0.00  0.83  0.00  0.00  0.00  0.00  0.00
  YS02001647YS02001649    1.00   0.00  0.17  0.00  0.83  0.00  0.00  0.00  0.01  0.00
  YS02001649YS02001757    1.00   0.00  0.00  0.00  1.00  0.00  0.00  0.00  0.18  0.00
  YS02001652YS02001649    1.00   0.00  0.00  0.00  0.97  0.03  0.00  0.00  0.14  0.00
  YS02001655YS02001652    1.00   0.00  0.00  0.00  0.80  0.00  0.00  0.20  0.00  0.00
  YS02001658YS02001655    1.00   0.00  0.14  0.00  0.80  0.06  0.00  0.00  0.01  0.00
  YS02001661YS02001658    1.00   0.14  0.00  0.00  0.79  0.06  0.00  0.00  0.01  0.00
  YS02001664YS02001661    1.00   0.13  0.00  0.00  0.80  0.07  0.00  0.00  0.86  0.00
  YS02001745YS02001748    1.00   0.00  0.00  0.00  0.79  0.00  0.00  0.21  0.06  0.00
  YS02001748YS02001751    1.00   0.00  0.00  0.00  0.94  0.06  0.00  0.00  0.13  0.00
  YS02001751YS02001754    1.00   0.00  0.00  0.00  0.80  0.00  0.00  0.20  0.00  0.00
  YS02001754YS02001757    1.00   0.00  0.00  0.00  1.00  0.00  0.00  0.00  0.20  0.00
  YS02001757CaochengTiaoxuchi    1.00   0.00  0.00  0.00  0.99  0.01  0.00  0.00  0.19  0.00
  YS02001759YS02001757    1.00   0.00  0.00  0.00  1.00  0.00  0.00  0.00  0.06  0.00
  YS02001762YS02001759    1.00   0.00  0.00  0.00  1.00  0.00  0.00  0.00  0.04  0.00
  YS02001765YS02001762    1.00   0.00  0.00  0.00  1.00  0.00  0.00  0.00  0.16  0.00
  YS02001767YS02001765    1.00   0.00  0.00  0.00  1.00  0.00  0.00  0.00  0.00  0.00
  YS02001770YS02001767    1.00   0.00  0.00  0.00  1.00  0.00  0.00  0.00  0.00  0.00
  YS02001774YS02001770    1.00   0.00  0.13  0.00  0.86  0.00  0.00  0.00  0.03  0.00
  YS02001779YS02001774    1.00   0.00  0.00  0.00  1.00  0.00  0.00  0.00  0.17  0.00
  YS02001783YS02001784    1.00   0.00  0.18  0.00  0.82  0.00  0.00  0.00  0.00  0.00
  YS02001784YS02001785    1.00   0.00  0.00  0.00  1.00  0.00  0.00  0.00  0.17  0.00
  YS02001786YS02001788    1.00   0.00  0.00  0.00  0.98  0.02  0.00  0.00  0.00  0.00
  YS02001788YS02001790    1.00   0.00  0.00  0.00  0.98  0.02  0.00  0.00  0.19  0.00
  YS02001790YS02001791    1.00   0.00  0.00  0.00  0.80  0.20  0.00  0.00  0.01  0.00
  YS02001791YS02001793    1.00   0.00  0.00  0.00  0.79  0.21  0.00  0.00  0.00  0.00
  YS02001793JiankangQianchi    1.00   0.00  0.00  0.00  0.93  0.07  0.00  0.00  0.18  0.00
  YS02001882YS02001884    1.00   0.16  0.01  0.00  0.84  0.00  0.00  0.00  0.00  0.00
  YS02001884YS02001887    1.00   0.06  0.05  0.00  0.89  0.00  0.00  0.00  0.00  0.00
  YS02001887YS02001890    1.00   0.00  0.00  0.00  0.97  0.00  0.03  0.00  0.00  0.00
  YS02001890YS02001895    1.00   0.00  0.17  0.00  0.83  0.00  0.00  0.00  0.00  0.00
  YS02001895YS02001898    1.00   0.17  0.00  0.00  0.82  0.00  0.01  0.00  0.00  0.00
  YS02001898YS02001901    1.00   0.17  0.00  0.00  0.83  0.00  0.00  0.00  0.01  0.00
  YS02001901YS02001904    1.00   0.17  0.00  0.00  0.83  0.00  0.00  0.00  0.00  0.00
  YS02001904YS02001907    1.00   0.00  0.17  0.00  0.83  0.00  0.00  0.00  0.00  0.00
  YS02001907YS02006553    1.00   0.00  0.02  0.00  0.98  0.00  0.00  0.00  0.00  0.00
  YS02001910YS02001907    1.00   0.00  0.00  0.00  0.97  0.00  0.00  0.03  0.12  0.00
  YS02001915YS02001910    1.00   0.00  0.00  0.00  0.96  0.04  0.00  0.00  0.16  0.00
  YS02001918YS02001915    1.00   0.00  0.01  0.00  0.98  0.02  0.00  0.00  0.79  0.00
  YS02001920YS02001918    1.00   0.00  0.01  0.00  0.99  0.00  0.00  0.00  0.00  0.00
  YS02001923YS02001920    1.00   0.00  0.00  0.00  1.00  0.00  0.00  0.00  0.94  0.00
  YS02001926YS02001923    1.00   0.00  0.07  0.00  0.05  0.00  0.88  0.00  0.00  0.00
  YS02001929YS02001926    1.00   0.00  0.13  0.00  0.87  0.00  0.00  0.00  0.84  0.00
  YS02006553YS02006556    1.00   0.01  0.00  0.00  0.99  0.00  0.00  0.00  0.03  0.00
  YS02006556YS02006558    1.00   0.00  0.00  0.00  1.00  0.00  0.00  0.00  0.00  0.00
  YS02006558YS02006561    1.00   0.18  0.00  0.00  0.05  0.77  0.00  0.00  0.19  0.00
  YS02006561YS02001783    1.00   0.18  0.00  0.00  0.80  0.02  0.00  0.00  0.74  0.00
  YS02163301YS02001633    1.00   0.00  0.16  0.00  0.84  0.00  0.00  0.00  0.00  0.00
  YS02163601YS02164001    1.00   0.00  0.08  0.00  0.92  0.00  0.00  0.00  0.00  0.00
  YS02164001YS02001641    1.00   0.01  0.07  0.00  0.92  0.00  0.00  0.00  0.06  0.00
  
  
  *************************
  Conduit Surcharge Summary
  *************************
  
  ----------------------------------------------------------------------------
                                                           Hours        Hours 
                         --------- Hours Full --------   Above Full   Capacity
  Conduit                Both Ends  Upstream  Dnstream   Normal Flow   Limited
  ----------------------------------------------------------------------------
  WS02003072WS02003073        0.01      0.01      0.01      2.06         0.01
  WS02004404WS02004405        0.01      0.01      0.01      1.91         0.01
  WS02006109WS02006110        0.01      0.01      1.57      0.01         0.01
  WS02006110WS02006113        0.01      0.01      1.56      0.01         0.01
  WS02006111WS02006112        0.01      0.01      1.62      0.01         0.01
  WS02006228WS02006109        1.53      1.57      1.53      1.73         1.53
  WS02006229WS02006228        1.52      1.53      1.52      1.67         1.52
  WS02006230WS02006229        1.62      1.65      1.62      2.18         1.62
  WS02006231WS02006230        0.01      0.01      0.01      2.03         0.01
  WS02006232WS02006231        0.01      0.01      1.58      0.01         0.01
  WS02006234WS02006232        1.49      1.49      1.58      0.01         0.01
  WS02006235WS02006234        0.01      0.01      1.53      1.95         0.01
  WS02006238WS02006235        1.54      1.54      1.59      0.01         0.01
  WS02006239WS02006238        1.55      1.58      1.55      1.71         1.55
  WS02006240WS02006239        1.54      1.55      1.54      1.73         1.54
  WS02006242WS02006240        1.54      1.54      1.63      1.78         0.01
  WS02006243WS02006242        1.56      1.56      1.61      0.01         0.01
  WS02006245WS02006243        1.55      1.56      1.55      1.77         1.55
  WS02006247WS02006245        1.55      1.58      1.55      1.86         1.55
  WS02006248WS02006247        1.55      1.55      1.57      0.01         0.01
  WS02006249WS02006248        1.55      1.55      1.56      1.86         0.01
  WS02006251WS02006249        1.56      1.57      1.56      1.82         1.56
  WS02006252WS02006251        1.84      1.84      1.84      1.84         0.01
  WS02006256WS02006235        1.99      1.99      2.75      0.02         0.01
  YS02001580YS02001583        0.36      0.36      0.40      0.01         0.01
  YS02001583YS02001586        0.36      0.36      0.53      0.01         0.01
  YS02001586YS02001590        0.53      0.53      0.60      0.01         0.01
  YS02001590YS02001593        0.60      0.60      0.61      0.63         0.01
  YS02001593YS02001596        0.61      0.61      0.73      0.01         0.01
  YS02001596YS02001600        0.80      0.80      1.16      0.01         0.01
  YS02001600YS02001601        1.45      1.45      6.46      0.01         0.01
  YS02001601YS02001602        6.45      6.45      6.47      0.76         0.01
  YS02001602YS02001605        6.44      6.44      6.45      1.90         0.02
  YS02001605YS02001607        6.42      6.44      6.42      0.99         0.95
  YS02001607YS02001610        0.71      0.71      0.81      0.01         0.01
  YS02001610YS02001613        0.71      0.71      0.81      0.01         0.01
  YS02001613YS02001616        0.63      0.63      0.71      0.01         0.01
  YS02001616YS02001619        0.60      0.60      0.63      0.01         0.01
  YS02001619YS02001622        0.60      0.60      0.62      0.52         0.46
  YS02001622YS02001625        0.62      0.62      6.37      0.01         0.01
  YS02001625YS02001629        0.53      0.53      6.37      0.01         0.01
  YS02001629YS02163301        6.38      6.38      6.39      0.02         0.11
  YS02001633YS02163601        6.39      6.39      6.39      0.37         0.35
  YS02001641YS02001644        6.38      6.38      6.38      1.09         1.07
  YS02001644YS02001647        6.33      6.33      6.38      0.03         0.01
  YS02001647YS02001649        6.33      6.33      6.36      0.01         0.01
  YS02001649YS02001757        6.36      6.36      6.36      0.24         0.21
  YS02001652YS02001649        6.35      6.35      6.36      0.01         0.01
  YS02001655YS02001652        0.10      0.10      6.08      0.01         0.01
  YS02001658YS02001655        0.01      0.01      0.10      0.01         0.01
  YS02001661YS02001658        0.01      0.01      0.01      0.01         0.01
  YS02001748YS02001751        0.01      0.01      0.01      0.01         0.01
  YS02001751YS02001754        0.01      0.01      4.76      0.01         0.01
  YS02001754YS02001757        6.18      6.18      6.36      0.01         0.01
  YS02001757CaochengTiaoxuchi        6.27      6.36      6.27      0.23         0.13
  YS02001759YS02001757        6.35      6.35      6.36      0.01         0.01
  YS02001762YS02001759        6.34      6.34      6.35      0.01         0.01
  YS02001765YS02001762        6.34      6.34      6.34      0.01         0.01
  YS02001767YS02001765        6.34      6.34      6.34      0.01         0.01
  YS02001770YS02001767        6.34      6.34      6.34      0.33         0.47
  YS02001774YS02001770        6.34      6.34      6.34      0.01         0.01
  YS02001779YS02001774        0.38      0.38      6.34      0.01         0.01
  YS02001783YS02001784        0.49      0.49      0.50      0.44         0.42
  YS02001784YS02001785        0.48      0.50      0.48      0.61         0.48
  YS02001786YS02001788        0.43      0.48      0.43      0.55         0.43
  YS02001788YS02001790        0.43      0.43      6.30      0.01         0.01
  YS02001790YS02001791        6.30      6.30      6.30      0.25         0.19
  YS02001791YS02001793        6.30      6.30      6.31      0.01         0.01
  YS02001793JiankangQianchi        6.31      6.31      6.39      0.01         0.01
  YS02001882YS02001884        0.35      0.35      0.36      0.01         0.01
  YS02001884YS02001887        0.38      0.38      0.39      0.01         0.01
  YS02001887YS02001890        0.40      0.40      0.41      0.01         0.01
  YS02001890YS02001895        0.34      0.34      0.43      0.01         0.01
  YS02001895YS02001898        0.34      0.34      0.34      0.01         0.01
  YS02001898YS02001901        0.35      0.35      0.38      0.01         0.01
  YS02001901YS02001904        0.37      0.37      0.38      0.01         0.01
  YS02001904YS02001907        0.37      0.37      0.54      0.01         0.01
  YS02001907YS02006553        0.62      0.62      0.67      0.01         0.01
  YS02001910YS02001907        0.42      0.42      0.53      0.01         0.01
  YS02001915YS02001910        0.35      0.35      0.42      0.01         0.01
  YS02001918YS02001915        0.26      0.26      0.35      0.01         0.01
  YS02001920YS02001918        0.26      0.26      0.28      0.01         0.01
  YS02001923YS02001920        0.20      0.20      0.28      0.01         0.01
  YS02001926YS02001923        0.01      0.01      0.01      0.01         0.01
  YS02001929YS02001926        0.01      0.01      0.01      0.01         0.01
  YS02006553YS02006556        0.48      0.48      0.54      0.01         0.01
  YS02006556YS02006558        0.50      0.50      0.55      0.01         0.01
  YS02006558YS02006561        0.37      0.47      0.37      0.59         0.37
  YS02006561YS02001783        0.29      0.29      0.49      0.01         0.01
  YS02163301YS02001633        6.39      6.39      6.39      0.01         0.01
  YS02163601YS02164001        6.38      6.38      6.39      0.04         0.01
  YS02164001YS02001641        6.38      6.38      6.38      0.58         0.56
  
  
  ***************
  Pumping Summary
  ***************
  
  ---------------------------------------------------------------------------------------------------------
                                                  Min       Avg       Max     Total     Power    % Time Off
                        Percent   Number of      Flow      Flow      Flow    Volume     Usage    Pump Curve
  Pump                 Utilized   Start-Ups       LPS       LPS       LPS  10^6 ltr     Kw-hr    Low   High
  ---------------------------------------------------------------------------------------------------------
  CC-R1                    1.06           1      0.00    683.00    683.00     0.208      3.51    0.0  100.0
  CC-R2                    1.06           1      0.00    683.00    683.00     0.208      3.51    0.0  100.0
  CC-S1                   23.01           2      0.00    200.00    200.00     1.325      5.69    0.0   54.4
  CC-S2                   23.82           3      0.00    200.00    200.00     1.372      5.80    0.0   56.0
  JK-R1                    0.97           2      0.00    347.46   1000.00     0.078      0.47    0.0    0.0
  JK-R2                    0.97           2      0.00    347.46   1000.00     0.078      0.47    0.0    0.0
  JK-S                     0.97           2      0.00    104.30    300.00     0.023      0.44    0.0    0.0
  XR-1                   100.00           1      0.00     95.00     95.00     2.736     68.18    0.0    0.0
  XR-2                   100.00           1      0.00     95.00     95.00     2.736     68.18    0.0    0.0
  XR-3                   100.00           1      0.00     95.00     95.00     2.736     68.18    0.0    0.0
  XR-4                   100.00           1      0.00     95.00     95.00     2.736     68.18    0.0    0.0
  

  Analysis begun on:  Wed Nov  5 16:29:24 2025
  Analysis ended on:  Wed Nov  5 16:29:27 2025
  Total elapsed time: 00:00:03