
  EPA STORM WATER MANAGEMENT MODEL - VERSION 5.2 (Build 5.2.4)
  PYSWMM TOOLKIT API - VERSION v1.0 (2023-11-27)
  ------------------------------------------------------------

  WARNING 04: minimum elevation drop used for Conduit WS02004404WS02004405
  WARNING 03: negative offset ignored for Link YS02001904YS02001907
  
  ****************
  Analysis Options
  ****************
  Flow Units ............... LPS
  Process Models:
    Rainfall/Runoff ........ YES
    RDII ................... NO
    Snowmelt ............... NO
    Groundwater ............ NO
    Flow Routing ........... YES
    Ponding Allowed ........ NO
    Water Quality .......... NO
  Infiltration Method ...... HORTON
  Flow Routing Method ...... DYNWAVE
  Surcharge Method ......... EXTRAN
  Starting Date ............ 08/28/2015 08:00:00
  Ending Date .............. 08/28/2015 16:00:00
  Antecedent Dry Days ...... 8.0
  Report Time Step ......... 00:01:00
  Wet Time Step ............ 00:01:00
  Dry Time Step ............ 00:01:00
  Routing Time Step ........ 30.00 sec
  Variable Time Step ....... YES
  Maximum Trials ........... 8
  Number of Threads ........ 4
  Head Tolerance ........... 0.001500 m
  
  
  **************************        Volume         Depth
  Runoff Quantity Continuity     hectare-m            mm
  **************************     ---------       -------
  Initial LID Storage ......         0.049         1.488
  Total Precipitation ......         2.045        61.641
  Evaporation Loss .........         0.000         0.000
  Infiltration Loss ........         0.078         2.360
  Surface Runoff ...........         1.510        45.520
  Final Storage ............         0.507        15.277
  Continuity Error (%) .....        -0.043
  
  
  **************************        Volume        Volume
  Flow Routing Continuity        hectare-m      10^6 ltr
  **************************     ---------     ---------
  Dry Weather Inflow .......         0.602         6.020
  Wet Weather Inflow .......         1.510        15.100
  Groundwater Inflow .......         0.000         0.000
  RDII Inflow ..............         0.000         0.000
  External Inflow ..........         0.105         1.045
  External Outflow .........         1.531        15.311
  Flooding Loss ............         0.620         6.199
  Evaporation Loss .........         0.000         0.000
  Exfiltration Loss ........         0.000         0.000
  Initial Stored Volume ....         0.303         3.031
  Final Stored Volume ......         0.825         8.248
  Continuity Error (%) .....       -18.109
  
  
  *************************
  Highest Continuity Errors
  *************************
  Node YS02001774 (27.53%)
  Node WS02006256 (-6.12%)
  Node YS02001884 (4.75%)
  Node YS02001583 (-4.39%)
  Node YS02001754 (3.76%)
  
  
  ***************************
  Time-Step Critical Elements
  ***************************
  Link WS02001212WS02001213 (34.81%)
  Link WS02006235WS02006234 (25.41%)
  Link WS02006238WS02006235 (14.36%)
  Link YS02006556YS02006558 (6.62%)
  Link WS02003066WSF200 (5.59%)
  
  
  ********************************
  Highest Flow Instability Indexes
  ********************************
  Link WS02006113WS02006111 (43)
  Link WS02006111WS02006112 (35)
  Link WS02006110WS02006113 (25)
  Link WS02006238WS02006235 (24)
  Link WS02006256WS02006235 (22)
  
  
  *********************************
  Most Frequent Nonconverging Nodes
  *********************************
  Node CC-1 (7.49%)
  Node CC-2 (7.49%)
  Node JK-1 (7.49%)
  Node JK-2 (7.49%)
  Node WSC (7.49%)
  
  
  *************************
  Routing Time Step Summary
  *************************
  Minimum Time Step           :     0.00 sec
  Average Time Step           :     3.82 sec
  Maximum Time Step           :     6.46 sec
  % of Time in Steady State   :     0.00
  Average Iterations per Step :     2.99
  % of Steps Not Converging   :     7.49
  Time Step Frequencies       :
     30.000 - 13.228 sec      :     0.00 %
     13.228 -  5.833 sec      :    33.51 %
      5.833 -  2.572 sec      :    41.61 %
      2.572 -  1.134 sec      :    18.46 %
      1.134 -  0.500 sec      :     6.42 %
  
  
  ***************************
  Subcatchment Runoff Summary
  ***************************
  
  ------------------------------------------------------------------------------------------------------------------------------
                            Total      Total      Total      Total     Imperv       Perv      Total       Total     Peak  Runoff
                           Precip      Runon       Evap      Infil     Runoff     Runoff     Runoff      Runoff   Runoff   Coeff
  Subcatchment                 mm         mm         mm         mm         mm         mm         mm    10^6 ltr      LPS
  ------------------------------------------------------------------------------------------------------------------------------
  sub60                     61.64       0.00       0.00       1.39      40.94       4.32      45.26        0.59   405.18   0.734
  sub61                     61.64       0.00       0.00       2.13      40.90       6.43      47.34        0.87   593.03   0.768
  sub62                     61.64       0.00       0.00       0.94      43.60       2.94      46.54        1.28   816.60   0.755
  sub63                     61.64       0.00       0.00       3.94      35.03      10.70      45.73        1.04   685.05   0.742
  sub64                     61.64       0.00       0.00       1.89      39.89       5.32      45.21        1.09   672.21   0.733
  sub65                     61.64       0.00       0.00       1.73      43.05       4.85      47.90        1.32   786.63   0.777
  sub66                     61.64       0.00       0.00       4.64      33.87       9.54      43.41        2.02  1054.03   0.704
  sub67                     61.64       0.00       0.00       0.93      44.70       3.04      47.75        0.89   621.31   0.775
  sub68                     61.64       0.00       0.00       1.64      39.48       4.94      44.42        1.22   812.12   0.721
  sub69                     61.64       0.00       0.00       1.51      41.44       5.81      47.25        1.75  1016.14   0.767
  sub70                     61.64       0.00       0.00       5.14      33.20      12.02      45.22        1.31   610.67   0.734
  sub71                     61.64       0.00       0.00       0.87      39.61       2.65      42.26        1.11   676.89   0.686
  sub72                     61.64       0.00       0.00       0.83      42.78       2.47      45.25        0.62   351.01   0.734
  

  ***********************
  LID Performance Summary
  ***********************

  --------------------------------------------------------------------------------------------------------------------
                                         Total      Evap     Infil   Surface    Drain    Initial     Final  Continuity
                                        Inflow      Loss      Loss   Outflow   Outflow   Storage   Storage       Error
  Subcatchment      LID Control             mm        mm        mm        mm        mm        mm        mm           %
  --------------------------------------------------------------------------------------------------------------------
  sub60             GreenRoof            61.64      0.00      0.00      0.00      0.00      7.05     68.78       -0.12
  sub61             GreenRoof            61.64      0.00      0.00      0.00      0.00      7.05     68.78       -0.12
  sub62             GreenRoof            61.64      0.00      0.00      0.00      0.00      7.05     68.78       -0.12
  sub63             GreenRoof            61.64      0.00      0.00      0.00      0.00      7.05     68.78       -0.12
  sub64             GreenRoof            61.64      0.00      0.00      0.00      0.00      7.05     68.78       -0.12
  sub65             GreenRoof            61.64      0.00      0.00      0.00      0.00      7.05     68.78       -0.12
  sub66             GreenRoof            61.64      0.00      0.00      0.00      0.00      7.05     68.78       -0.12
  sub67             GreenRoof            61.64      0.00      0.00      0.00      0.00      7.05     68.78       -0.12
  sub68             GreenRoof            61.64      0.00      0.00      0.00      0.00      7.05     68.78       -0.12
  sub69             GreenRoof            61.64      0.00      0.00      0.00      0.00      7.05     68.78       -0.12
  sub70             GreenRoof            61.64      0.00      0.00      0.00      0.00      7.05     68.78       -0.12
  sub71             GreenRoof            61.64      0.00      0.00      0.00      0.00      7.05     68.78       -0.12
  sub72             GreenRoof            61.64      0.00      0.00      0.00      0.00      7.05     68.78       -0.12
  
  ******************
  Node Depth Summary
  ******************
  
  ---------------------------------------------------------------------------------
                                 Average  Maximum  Maximum  Time of Max    Reported
                                   Depth    Depth      HGL   Occurrence   Max Depth
  Node                 Type       Meters   Meters   Meters  days hr:min      Meters
  ---------------------------------------------------------------------------------
  WS02001211           JUNCTION     0.76     0.78     5.62     0  02:17        0.78
  WS02001212           JUNCTION     0.46     0.49     5.55     0  03:16        0.49
  WS02001213           JUNCTION     0.68     0.73     5.49     0  03:15        0.73
  WS02003059           JUNCTION     0.73     0.78     5.47     0  02:15        0.78
  WS02003060           JUNCTION     0.38     0.47     5.41     0  02:14        0.47
  WS02003066           JUNCTION     0.16     0.27     5.82     0  02:14        0.27
  WS02003067           JUNCTION     0.44     0.65     5.97     0  02:14        0.65
  WS02003069           JUNCTION     0.43     0.54     5.12     0  02:15        0.54
  WS02003072           JUNCTION     0.50     0.60     4.97     0  02:16        0.60
  WS02003073           JUNCTION     0.30     0.37     4.43     0  02:16        0.37
  WS02004138           JUNCTION     0.19     0.20     7.45     0  00:00        0.19
  WS02004139           JUNCTION     0.71     0.73     5.64     0  02:18        0.73
  WS02004401           JUNCTION     0.52     0.75     6.75     0  03:10        0.75
  WS02004402           JUNCTION     0.55     0.78     6.74     0  03:11        0.78
  WS02004403           JUNCTION     0.58     0.80     6.73     0  03:11        0.80
  WS02004404           JUNCTION     0.65     0.88     6.73     0  03:11        0.88
  WS02004405           JUNCTION     0.65     0.88     6.73     0  03:11        0.88
  WS02004406           JUNCTION     0.66     0.88     6.71     0  03:11        0.88
  WS02004407           JUNCTION     0.14     0.26     6.57     0  03:11        0.26
  WS02004409           JUNCTION     0.32     0.58     6.35     0  03:12        0.58
  WS02004410           JUNCTION     0.34     0.59     6.31     0  03:12        0.59
  WS02004411           JUNCTION     0.37     0.61     6.29     0  02:13        0.61
  WS02004412           JUNCTION     0.39     0.62     6.26     0  03:14        0.62
  WS02004413           JUNCTION     0.54     0.79     6.26     0  02:13        0.79
  WS02006109           JUNCTION     0.58     0.83     7.45     0  02:23        0.83
  WS02006110           JUNCTION     0.58     0.82     7.41     0  02:16        0.82
  WS02006111           JUNCTION     0.15     0.25     6.96     0  03:10        0.25
  WS02006112           JUNCTION     0.67     0.93     6.82     0  03:10        0.93
  WS02006113           JUNCTION     0.22     0.39     7.29     0  03:31        0.39
  WS02006115           JUNCTION     0.41     0.65     6.78     0  03:10        0.65
  WS02006116           JUNCTION     0.49     0.73     6.77     0  03:10        0.73
  WS02006228           JUNCTION     0.56     0.84     7.50     0  02:23        0.84
  WS02006229           JUNCTION     0.53     0.84     7.53     0  01:38        0.82
  WS02006230           JUNCTION     0.52     0.86     7.60     0  02:30        0.86
  WS02006231           JUNCTION     0.32     0.60     7.72     0  02:29        0.60
  WS02006232           JUNCTION     0.44     0.75     7.79     0  02:29        0.75
  WS02006234           JUNCTION     0.36     0.71     7.87     0  02:15        0.71
  WS02006235           JUNCTION     0.39     0.77     7.93     0  02:22        0.76
  WS02006238           JUNCTION     0.42     0.81     7.96     0  02:22        0.80
  WS02006239           JUNCTION     0.40     0.81     8.02     0  02:21        0.80
  WS02006240           JUNCTION     0.39     0.79     8.08     0  02:18        0.79
  WS02006242           JUNCTION     0.45     0.91     8.17     0  02:18        0.90
  WS02006243           JUNCTION     0.40     0.84     8.26     0  02:20        0.84
  WS02006245           JUNCTION     0.40     0.86     8.34     0  02:21        0.85
  WS02006247           JUNCTION     0.42     0.89     8.39     0  02:21        0.89
  WS02006248           JUNCTION     0.40     0.86     8.44     0  02:21        0.85
  WS02006249           JUNCTION     0.42     1.03     8.62     0  01:44        1.03
  WS02006251           JUNCTION     0.42     0.91     8.58     0  02:22        0.91
  WS02006252           JUNCTION     0.28     1.50     9.74     0  00:00        0.59
  WS02006256           JUNCTION     0.63     2.35     9.28     0  00:00        2.35
  WSF200               JUNCTION     0.13     0.25     5.48     0  02:14        0.25
  YS02001580           JUNCTION     0.09     1.05     9.59     0  02:14        0.77
  YS02001583           JUNCTION     0.12     1.00     9.50     0  02:14        0.82
  YS02001586           JUNCTION     0.21     1.13     9.30     0  02:14        1.13
  YS02001590           JUNCTION     0.31     1.40     9.26     0  02:14        1.37
  YS02001593           JUNCTION     0.25     1.34     9.20     0  02:14        1.29
  YS02001596           JUNCTION     0.50     1.68     9.10     0  02:14        1.65
  YS02001600           JUNCTION     0.71     1.87     9.00     0  02:14        1.87
  YS02001601           JUNCTION     0.96     2.06     8.90     0  02:14        2.06
  YS02001602           JUNCTION     0.87     1.87     8.77     0  02:17        1.87
  YS02001605           JUNCTION     0.84     1.78     8.68     0  02:19        1.78
  YS02001607           JUNCTION     0.83     1.65     8.49     0  02:31        1.64
  YS02001610           JUNCTION     0.87     1.68     8.48     0  02:18        1.68
  YS02001613           JUNCTION     0.83     1.66     8.50     0  02:22        1.65
  YS02001616           JUNCTION     0.76     1.60     8.51     0  02:22        1.60
  YS02001619           JUNCTION     0.74     1.59     8.52     0  02:22        1.59
  YS02001622           JUNCTION     0.75     1.56     8.47     0  02:23        1.56
  YS02001625           JUNCTION     1.00     1.78     8.38     0  02:18        1.78
  YS02001629           JUNCTION     1.01     1.85     8.40     0  02:20        1.85
  YS02001633           JUNCTION     1.09     2.00     8.45     0  02:21        1.98
  YS02001641           JUNCTION     1.07     1.95     8.38     0  02:21        1.93
  YS02001644           JUNCTION     1.07     1.92     8.35     0  02:21        1.92
  YS02001647           JUNCTION     0.87     1.73     8.34     0  02:25        1.72
  YS02001649           JUNCTION     1.02     1.94     8.33     0  02:25        1.92
  YS02001652           JUNCTION     0.85     1.77     8.36     0  02:25        1.74
  YS02001655           JUNCTION     0.67     1.55     8.40     0  02:21        1.51
  YS02001658           JUNCTION     0.48     1.39     8.53     0  02:21        1.24
  YS02001661           JUNCTION     0.32     1.06     8.47     0  02:25        1.01
  YS02001664           JUNCTION     0.06     0.47     8.40     0  02:24        0.43
  YS02001745           JUNCTION     0.22     0.74     8.25     0  02:24        0.73
  YS02001748           JUNCTION     0.50     1.33     8.40     0  02:22        1.17
  YS02001751           JUNCTION     0.63     1.43     8.31     0  02:22        1.36
  YS02001754           JUNCTION     0.82     1.63     8.24     0  02:22        1.62
  YS02001757           JUNCTION     1.10     1.96     8.23     0  02:25        1.95
  YS02001759           JUNCTION     1.01     1.94     8.31     0  02:25        1.93
  YS02001762           JUNCTION     0.99     1.92     8.32     0  02:25        1.91
  YS02001765           JUNCTION     0.95     1.88     8.33     0  02:25        1.88
  YS02001767           JUNCTION     0.93     1.87     8.36     0  02:24        1.86
  YS02001770           JUNCTION     0.93     1.89     8.39     0  02:24        1.89
  YS02001774           JUNCTION     0.99     1.96     8.39     0  02:23        1.96
  YS02001779           JUNCTION     0.77     1.68     8.37     0  02:19        1.68
  YS02001783           JUNCTION     0.49     1.54     7.68     0  02:19        1.49
  YS02001784           JUNCTION     0.53     1.48     7.55     0  02:19        1.42
  YS02001786           JUNCTION     0.53     1.32     7.35     0  02:19        1.27
  YS02001788           JUNCTION     0.53     1.18     7.15     0  02:19        1.13
  YS02001790           JUNCTION     0.76     1.33     6.97     0  02:19        1.29
  YS02001791           JUNCTION     0.85     1.29     6.76     0  02:19        1.28
  YS02001793           JUNCTION     1.29     1.81     6.64     0  02:09        1.81
  YS02001882           JUNCTION     0.32     1.63     8.35     0  02:23        1.63
  YS02001884           JUNCTION     0.40     1.73     8.35     0  02:24        1.73
  YS02001887           JUNCTION     0.48     1.82     8.36     0  02:22        1.82
  YS02001890           JUNCTION     0.51     1.81     8.32     0  02:19        1.81
  YS02001895           JUNCTION     0.29     1.57     8.31     0  02:24        1.56
  YS02001898           JUNCTION     0.29     1.56     8.30     0  02:25        1.56
  YS02001901           JUNCTION     0.40     1.68     8.29     0  02:23        1.67
  YS02001904           JUNCTION     0.38     1.64     8.27     0  02:19        1.63
  YS02001907           JUNCTION     0.69     1.96     8.25     0  02:19        1.96
  YS02001910           JUNCTION     0.50     1.98     8.48     0  02:20        1.83
  YS02001915           JUNCTION     0.31     1.93     8.64     0  02:20        1.68
  YS02001918           JUNCTION     0.16     1.81     8.88     0  02:20        1.36
  YS02001920           JUNCTION     0.24     2.04     9.05     0  02:20        1.43
  YS02001923           JUNCTION     0.12     1.94     9.20     0  02:20        1.19
  YS02001926           JUNCTION     0.16     1.83     9.28     0  02:20        1.03
  YS02001929           JUNCTION     0.09     1.78     9.47     0  02:20        0.81
  YS02006553           JUNCTION     0.70     1.98     8.26     0  02:23        1.97
  YS02006556           JUNCTION     0.67     1.96     8.27     0  02:19        1.95
  YS02006558           JUNCTION     0.71     2.00     8.27     0  02:19        1.99
  YS02006561           JUNCTION     0.18     1.15     7.81     0  02:19        1.10
  YS02163301           JUNCTION     1.03     1.91     8.43     0  02:21        1.90
  YS02163601           JUNCTION     1.12     2.03     8.43     0  02:21        2.00
  YS02164001           JUNCTION     1.06     1.95     8.41     0  02:21        1.93
  CC-1                 OUTFALL      0.00     0.00     0.00     0  00:00        0.00
  CC-2                 OUTFALL      0.00     0.00     0.00     0  00:00        0.00
  JK-1                 OUTFALL      0.00     0.00     0.00     0  00:00        0.00
  JK-2                 OUTFALL      0.00     0.00     0.00     0  00:00        0.00
  WSC                  OUTFALL      0.30     0.37     1.04     0  02:17        0.37
  CC-storage           STORAGE      1.65     2.30     7.80     0  02:54        2.30
  JK-storage           STORAGE      4.38     5.80     6.60     0  02:04        5.80
  XR-storage           STORAGE      0.31     5.00     3.00     0  00:00        4.91
  
  
  *******************
  Node Inflow Summary
  *******************
  
  -------------------------------------------------------------------------------------------------
                                  Maximum  Maximum                  Lateral       Total        Flow
                                  Lateral    Total  Time of Max      Inflow      Inflow     Balance
                                   Inflow   Inflow   Occurrence      Volume      Volume       Error
  Node                 Type           LPS      LPS  days hr:min    10^6 ltr    10^6 ltr     Percent
  -------------------------------------------------------------------------------------------------
  WS02001211           JUNCTION      7.35   389.13     0  03:44       0.212        11.1       0.348
  WS02001212           JUNCTION      0.00   390.84     0  03:46           0        11.1       0.207
  WS02001213           JUNCTION      0.00   392.59     0  03:45           0        11.1       0.238
  WS02003059           JUNCTION      0.00   395.63     0  03:45           0          11       0.328
  WS02003060           JUNCTION     16.53   816.11     0  03:15       0.476        14.8       0.146
  WS02003066           JUNCTION      0.00   411.94     0  02:14           0        3.32       0.037
  WS02003067           JUNCTION      0.00   411.93     0  02:13           0        3.32       0.120
  WS02003069           JUNCTION      0.32   816.39     0  02:15     0.00922        14.8       0.154
  WS02003072           JUNCTION      0.00   816.37     0  02:15           0        14.7       0.201
  WS02003073           JUNCTION      1.82   818.19     0  02:16      0.0524        14.8       0.216
  WS02004138           JUNCTION      0.00   380.00     0  00:00           0        10.9       0.059
  WS02004139           JUNCTION      0.32   395.52     0  00:00     0.00924        10.9       0.407
  WS02004401           JUNCTION      0.00   412.37     0  03:10           0        3.42       0.290
  WS02004402           JUNCTION      0.00   412.26     0  03:10           0        3.41       0.296
  WS02004403           JUNCTION      0.00   412.24     0  03:11           0         3.4       0.290
  WS02004404           JUNCTION      0.16   412.33     0  03:11     0.00467        3.39       0.242
  WS02004405           JUNCTION      0.04   412.34     0  03:11      0.0011        3.38       0.361
  WS02004406           JUNCTION      0.00   412.43     0  03:12           0        3.37       0.605
  WS02004407           JUNCTION      0.00   412.18     0  03:11           0        3.35       0.027
  WS02004409           JUNCTION      0.00   412.11     0  03:11           0        3.35       0.064
  WS02004410           JUNCTION      0.00   412.04     0  03:12           0        3.35       0.116
  WS02004411           JUNCTION      0.00   412.01     0  03:14           0        3.34       0.153
  WS02004412           JUNCTION      0.00   411.97     0  03:12           0        3.34       0.210
  WS02004413           JUNCTION      0.00   412.02     0  03:14           0        3.33       0.376
  WS02006109           JUNCTION      1.23   411.77     0  03:10      0.0354        3.46       0.228
  WS02006110           JUNCTION      0.00   411.77     0  03:10           0        3.45       0.180
  WS02006111           JUNCTION      0.00   423.93     0  02:16           0        3.44       0.021
  WS02006112           JUNCTION      0.00   414.45     0  03:10           0        3.44       0.506
  WS02006113           JUNCTION      0.00   412.23     0  03:10           0        3.45       0.043
  WS02006115           JUNCTION      0.00   412.97     0  03:10           0        3.43       0.181
  WS02006116           JUNCTION      0.00   412.51     0  03:10           0        3.42       0.133
  WS02006228           JUNCTION      0.00   413.90     0  01:39           0        3.43       0.081
  WS02006229           JUNCTION      0.00   410.56     0  03:10           0        3.43       0.133
  WS02006230           JUNCTION     10.28   410.55     0  02:35       0.296        3.44       0.175
  WS02006231           JUNCTION      0.00   400.33     0  02:34           0        3.14      -0.102
  WS02006232           JUNCTION      0.00   400.32     0  02:29           0        3.15       0.264
  WS02006234           JUNCTION      0.00   402.27     0  02:21           0        3.14      -0.175
  WS02006235           JUNCTION      0.00   402.51     0  02:21           0        3.16       0.229
  WS02006238           JUNCTION      0.00   402.49     0  02:22           0        3.14      -0.196
  WS02006239           JUNCTION      0.00   401.24     0  02:21           0        3.13      -0.152
  WS02006240           JUNCTION      0.00   400.77     0  02:22           0        3.12      -0.043
  WS02006242           JUNCTION      0.00   400.82     0  01:44           0        3.12       0.004
  WS02006243           JUNCTION      0.00   401.42     0  01:44           0        3.12       0.029
  WS02006245           JUNCTION      0.00   403.08     0  02:28           0        3.13       0.308
  WS02006247           JUNCTION      0.00   401.02     0  02:22           0        3.13       0.012
  WS02006248           JUNCTION      0.00   403.26     0  01:44           0        3.13       0.089
  WS02006249           JUNCTION      0.00   458.97     0  00:00           0        3.14       0.218
  WS02006251           JUNCTION      0.08   401.18     0  02:33     0.00222        3.14      -0.002
  WS02006252           JUNCTION      0.00   400.00     0  00:00           0        3.13      -0.029
  WS02006256           JUNCTION      0.00   300.00     0  00:00           0      0.0242      -5.763
  WSF200               JUNCTION      0.00   411.93     0  02:14           0        3.32       0.016
  YS02001580           JUNCTION      0.00    73.29     0  02:14           0     0.00401       0.358
  YS02001583           JUNCTION      0.00   127.85     0  02:14           0      0.0152      -4.204
  YS02001586           JUNCTION    610.67   610.67     0  02:26        1.31        1.32       0.076
  YS02001590           JUNCTION      0.00   318.03     0  02:32           0        1.13       0.024
  YS02001593           JUNCTION      0.00   318.14     0  02:31           0        1.13       0.021
  YS02001596           JUNCTION      0.00   318.11     0  02:28           0        1.13       0.293
  YS02001600           JUNCTION      0.00   318.08     0  02:31           0        1.13       0.700
  YS02001601           JUNCTION   1016.14  1333.88     0  02:25        1.75        2.87       0.311
  YS02001602           JUNCTION      0.00   492.21     0  02:14           0        1.99       0.464
  YS02001605           JUNCTION      0.00   493.08     0  02:14           0        1.88       0.741
  YS02001607           JUNCTION      0.00   493.10     0  02:14           0        1.87       1.133
  YS02001610           JUNCTION      0.00   520.79     0  02:26           0        1.91       1.194
  YS02001613           JUNCTION      0.00   498.16     0  02:13           0        1.59       1.509
  YS02001616           JUNCTION      0.00   489.99     0  02:13           0        1.57       1.372
  YS02001619           JUNCTION   1054.03  1054.03     0  02:26        2.02        3.52       0.598
  YS02001622           JUNCTION      0.00   931.91     0  02:18           0        3.44       0.848
  YS02001625           JUNCTION      0.00  1141.91     0  02:26           0        3.49       1.290
  YS02001629           JUNCTION      0.00   931.61     0  02:18           0        2.78       0.820
  YS02001633           JUNCTION    786.83  1345.72     0  02:18        1.32        3.96       0.812
  YS02001641           JUNCTION      0.00  1344.96     0  02:18           0         3.8       0.554
  YS02001644           JUNCTION    672.25  1702.78     0  02:18        1.09        4.86       0.540
  YS02001647           JUNCTION      0.00  1703.68     0  02:18           0         4.7       0.601
  YS02001649           JUNCTION      0.00  1893.59     0  02:18           0        5.67       0.657
  YS02001652           JUNCTION      0.00   714.62     0  02:25           0        1.04       2.232
  YS02001655           JUNCTION      0.15   712.79     0  02:25     0.00443        1.06       2.160
  YS02001658           JUNCTION      0.00   711.99     0  02:25           0        1.06       1.445
  YS02001661           JUNCTION      0.00   844.94     0  02:25           0        1.05       0.659
  YS02001664           JUNCTION    685.05   685.05     0  02:25        1.04        1.04      -0.034
  YS02001745           JUNCTION    405.18   405.18     0  02:25       0.595       0.603       0.747
  YS02001748           JUNCTION      0.04   445.14     0  02:22      0.0013       0.621       2.346
  YS02001751           JUNCTION      0.01   413.17     0  02:25    0.000317       0.628       3.615
  YS02001754           JUNCTION      0.26   412.97     0  02:25     0.00749       0.625       3.906
  YS02001757           JUNCTION      0.00  3082.25     0  02:23           0        8.17       1.148
  YS02001759           JUNCTION    593.07  1245.98     0  02:24        0.87        2.01       1.122
  YS02001762           JUNCTION      0.00   684.21     0  02:23           0        1.16       1.846
  YS02001765           JUNCTION      0.00   685.59     0  02:23           0        1.18       2.099
  YS02001767           JUNCTION      0.54   684.31     0  02:23      0.0154        1.21       2.998
  YS02001770           JUNCTION    816.75   816.75     0  02:25        1.28         1.3       2.439
  YS02001774           JUNCTION      0.00   271.54     0  02:19           0      0.0909      37.985
  YS02001779           JUNCTION      0.01   274.63     0  02:19    0.000144      0.0538      37.827
  YS02001783           JUNCTION      0.00   977.30     0  02:24           0        3.18       0.217
  YS02001784           JUNCTION      1.06   978.12     0  02:24      0.0305         3.2       0.323
  YS02001786           JUNCTION      0.06   978.25     0  02:24     0.00162        3.19       0.421
  YS02001788           JUNCTION      0.07   978.79     0  02:24     0.00204        3.18       0.426
  YS02001790           JUNCTION      0.15   978.57     0  02:24     0.00446        3.17       0.528
  YS02001791           JUNCTION      0.00   978.19     0  02:23           0        3.15       0.460
  YS02001793           JUNCTION      0.00   979.04     0  02:24           0        3.14       0.515
  YS02001882           JUNCTION      0.00    33.56     0  02:17           0      0.0123       3.687
  YS02001884           JUNCTION      0.00    52.26     0  02:16           0       0.048       4.983
  YS02001887           JUNCTION    621.76   621.76     0  02:25       0.901       0.935       0.452
  YS02001890           JUNCTION      0.00   621.18     0  02:25           0       0.894       0.530
  YS02001895           JUNCTION      0.00   515.43     0  02:26           0       0.872       0.140
  YS02001898           JUNCTION      0.00   515.70     0  02:26           0        0.87       0.001
  YS02001901           JUNCTION      0.00   516.12     0  02:26           0       0.873       0.344
  YS02001904           JUNCTION      0.00   516.17     0  02:26           0       0.877       0.295
  YS02001907           JUNCTION      0.00  1578.81     0  02:25           0        2.68       0.655
  YS02001910           JUNCTION      0.00  1067.20     0  02:25           0        1.81       0.379
  YS02001915           JUNCTION    676.91  1067.39     0  02:25        1.11        1.85       0.078
  YS02001918           JUNCTION      0.00   468.06     0  02:20           0       0.771       0.016
  YS02001920           JUNCTION      2.87   466.81     0  02:20      0.0827       0.755       0.101
  YS02001923           JUNCTION      0.04   437.78     0  02:20     0.00109       0.656      -0.038
  YS02001926           JUNCTION      0.05   495.21     0  02:19      0.0015       0.635      -0.035
  YS02001929           JUNCTION    351.01   351.01     0  02:25       0.622       0.623      -0.118
  YS02006553           JUNCTION      0.00   678.99     0  02:36           0        1.97       0.582
  YS02006556           JUNCTION      0.00   678.99     0  02:36           0        1.98       0.380
  YS02006558           JUNCTION    813.00   978.66     0  02:24        1.25         3.2       0.103
  YS02006561           JUNCTION      0.00   976.89     0  02:24           0        3.17      -0.010
  YS02163301           JUNCTION      0.00   931.47     0  02:18           0        2.75       0.881
  YS02163601           JUNCTION      0.11  1346.22     0  02:18     0.00317        3.84       0.787
  YS02164001           JUNCTION      0.00  1344.71     0  02:18           0        3.81       0.535
  CC-1                 OUTFALL       0.00   683.00     0  00:00           0       0.208       0.000
  CC-2                 OUTFALL       0.00   683.00     0  00:00           0       0.208       0.000
  JK-1                 OUTFALL       0.00  1000.00     0  00:00           0      0.0791       0.000
  JK-2                 OUTFALL       0.00  1000.00     0  00:00           0      0.0791       0.000
  WSC                  OUTFALL       0.00   818.18     0  02:17           0        14.7       0.000
  CC-storage           STORAGE       0.00  3080.00     0  02:23           0        10.2       0.443
  JK-storage           STORAGE       0.00   978.92     0  02:24           0        3.27       0.498
  XR-storage           STORAGE     200.00   200.00     0  00:00        5.76        6.36     -41.886
  
  
  **********************
  Node Surcharge Summary
  **********************
  
  Surcharging occurs when water rises above the top of the highest conduit.
  ---------------------------------------------------------------------
                                               Max. Height   Min. Depth
                                   Hours       Above Crown    Below Rim
  Node                 Type      Surcharged         Meters       Meters
  ---------------------------------------------------------------------
  WS02006109           JUNCTION        1.85          0.015        1.805
  WS02006228           JUNCTION        1.84          0.014        2.186
  WS02006229           JUNCTION        1.87          0.040        2.410
  WS02006232           JUNCTION        1.92          0.050        1.430
  WS02006235           JUNCTION        1.86          0.059        1.231
  WS02006238           JUNCTION        1.89          0.093        1.337
  WS02006239           JUNCTION        1.87          0.068        1.222
  WS02006240           JUNCTION        1.87          0.081        1.309
  WS02006242           JUNCTION        1.95          0.176        0.644
  WS02006243           JUNCTION        1.88          0.133        0.637
  WS02006245           JUNCTION        1.89          0.150        0.700
  WS02006247           JUNCTION        1.90          0.180        0.580
  WS02006248           JUNCTION        1.88          0.137        0.243
  WS02006249           JUNCTION        1.90          0.327        0.063
  WS02006252           JUNCTION        2.18          1.100        0.000
  WS02006256           JUNCTION        3.09          2.050        0.000
  YS02001580           JUNCTION        0.47          0.450        0.000
  YS02001583           JUNCTION        0.48          0.360        0.140
  YS02001586           JUNCTION        0.63          0.510        0.000
  YS02001590           JUNCTION        0.73          0.750        0.000
  YS02001593           JUNCTION        0.74          0.720        0.120
  YS02001596           JUNCTION        0.90          0.955        0.115
  YS02001600           JUNCTION        1.26          1.190        0.000
  YS02001601           JUNCTION        6.15          1.440        0.000
  YS02001602           JUNCTION        6.07          1.270        0.000
  YS02001605           JUNCTION        6.04          1.180        0.000
  YS02001607           JUNCTION        0.93          0.645        0.035
  YS02001610           JUNCTION        1.08          0.680        0.000
  YS02001613           JUNCTION        0.94          0.657        0.043
  YS02001616           JUNCTION        0.83          0.596        0.014
  YS02001619           JUNCTION        0.82          0.594        0.016
  YS02001622           JUNCTION        0.83          0.564        0.056
  YS02001625           JUNCTION        5.82          0.780        0.000
  YS02001629           JUNCTION        0.80          0.470        0.000
  YS02001633           JUNCTION        5.83          0.979        0.081
  YS02001641           JUNCTION        5.79          0.947        0.153
  YS02001644           JUNCTION        5.77          0.920        0.000
  YS02001647           JUNCTION        5.69          0.728        0.172
  YS02001649           JUNCTION        5.70          0.936        0.114
  YS02001652           JUNCTION        5.67          0.736        0.394
  YS02001655           JUNCTION        0.71          0.553        0.647
  YS02001658           JUNCTION        0.16          0.392        0.908
  YS02001748           JUNCTION        0.10          0.246        0.944
  YS02001751           JUNCTION        0.63          0.427        0.773
  YS02001754           JUNCTION        5.66          0.580        0.570
  YS02001757           JUNCTION        5.70          0.964        0.246
  YS02001759           JUNCTION        5.68          0.941        0.269
  YS02001762           JUNCTION        5.68          0.920        0.230
  YS02001765           JUNCTION        5.68          0.884        0.216
  YS02001767           JUNCTION        5.68          0.870        0.160
  YS02001770           JUNCTION        5.67          0.864        0.056
  YS02001774           JUNCTION        5.68          0.963        0.087
  YS02001779           JUNCTION        5.66          0.680        0.000
  YS02001783           JUNCTION        0.64          0.736        0.864
  YS02001784           JUNCTION        0.65          0.678        0.812
  YS02001786           JUNCTION        0.64          0.518        0.912
  YS02001788           JUNCTION        0.64          0.378        1.102
  YS02001790           JUNCTION        5.94          0.529        0.628
  YS02001791           JUNCTION        5.95          0.490        1.430
  YS02001793           JUNCTION        5.99          0.809        1.791
  YS02001882           JUNCTION        0.40          0.634        0.196
  YS02001884           JUNCTION        0.40          0.672        0.198
  YS02001887           JUNCTION        0.44          0.768        0.182
  YS02001890           JUNCTION        0.45          0.760        0.000
  YS02001895           JUNCTION        0.38          0.565        0.185
  YS02001898           JUNCTION        0.38          0.531        0.209
  YS02001901           JUNCTION        0.42          0.677        0.193
  YS02001904           JUNCTION        0.42          0.636        0.214
  YS02001907           JUNCTION        0.66          0.950        0.000
  YS02001910           JUNCTION        0.47          0.976        0.124
  YS02001915           JUNCTION        0.39          0.926        0.074
  YS02001918           JUNCTION        0.31          0.810        0.000
  YS02001920           JUNCTION        0.32          1.041        0.099
  YS02001923           JUNCTION        0.01          0.728        0.092
  YS02001926           JUNCTION        0.03          0.830        0.070
  YS02001929           JUNCTION        0.01          0.780        0.000
  YS02006553           JUNCTION        0.67          0.978        0.212
  YS02006556           JUNCTION        0.56          0.916        0.434
  YS02006558           JUNCTION        0.55          0.901        0.499
  YS02006561           JUNCTION        0.34          0.346        0.804
  YS02163301           JUNCTION        5.82          0.914        0.116
  YS02163601           JUNCTION        5.84          1.029        0.051
  YS02164001           JUNCTION        5.80          0.950        0.150
  
  
  *********************
  Node Flooding Summary
  *********************
  
  Flooding refers to all water that overflows a node, whether it ponds or not.
  --------------------------------------------------------------------------
                                                             Total   Maximum
                                 Maximum   Time of Max       Flood    Ponded
                        Hours       Rate    Occurrence      Volume     Depth
  Node                 Flooded       LPS   days hr:min    10^6 ltr    Meters
  --------------------------------------------------------------------------
  WS02006252              0.01    245.63      0  00:00       0.000     0.000
  WS02006256              0.02    293.19      0  00:00       0.005     0.000
  YS02001580              0.01     30.79      0  02:14       0.000     0.000
  YS02001586              0.35    292.97      0  02:26       0.179     0.000
  YS02001590              0.01      7.16      0  02:14       0.000     0.000
  YS02001600              0.01      2.84      0  02:14       0.000     0.000
  YS02001601              0.55    935.76      0  02:25       0.866     0.000
  YS02001602              0.50     62.07      0  02:38       0.099     0.000
  YS02001605              0.01      0.36      0  02:22       0.000     0.000
  YS02001610              0.39    520.26      0  02:26       0.360     0.000
  YS02001625              0.41   1141.64      0  02:26       0.765     0.000
  YS02001629              0.07     68.36      0  02:23       0.010     0.000
  YS02001644              0.12    522.33      0  02:25       0.129     0.000
  YS02001779              0.09    191.73      0  02:19       0.033     0.000
  YS02001890              0.10    110.17      0  02:25       0.018     0.000
  YS02001907              0.25   1416.16      0  02:25       0.703     0.000
  YS02001918              0.01     66.16      0  02:20       0.000     0.000
  YS02001929              0.01    163.83      0  02:20       0.000     0.000
  CC-storage              0.23    556.14      0  02:54       0.248     0.000
  JK-storage              5.93    978.81      0  02:24       2.784     0.000
  
  
  **********************
  Storage Volume Summary
  **********************
  
  ------------------------------------------------------------------------------------------------
                         Average    Avg   Evap  Exfil     Maximum    Max    Time of Max    Maximum
                          Volume   Pcnt   Pcnt   Pcnt      Volume   Pcnt     Occurrence    Outflow
  Storage Unit           1000 m³   Full   Loss   Loss     1000 m³   Full    days hr:min        LPS
  ------------------------------------------------------------------------------------------------
  CC-storage               4.591   71.6    0.0    0.0       6.410  100.0       0  02:54    1783.53
  JK-storage               0.220   75.6    0.0    0.0       0.291  100.0       0  02:04    2300.00
  XR-storage               0.037    2.6    0.0    0.0       0.600   41.7       0  00:00     380.00
  
  
  ***********************
  Outfall Loading Summary
  ***********************
  
  -----------------------------------------------------------
                         Flow       Avg       Max       Total
                         Freq      Flow      Flow      Volume
  Outfall Node           Pcnt       LPS       LPS    10^6 ltr
  -----------------------------------------------------------
  CC-1                   1.35    683.00    683.00       0.208
  CC-2                   1.35    683.00    683.00       0.208
  JK-1                   1.26    347.46   1000.00       0.079
  JK-2                   1.26    347.46   1000.00       0.079
  WSC                   99.92    572.42    818.18      14.736
  -----------------------------------------------------------
  System                21.03   2633.34   3366.35      15.311
  
  
  ********************
  Link Flow Summary
  ********************
  
  -----------------------------------------------------------------------------
                                 Maximum  Time of Max   Maximum    Max/    Max/
                                  |Flow|   Occurrence   |Veloc|    Full    Full
  Link                 Type          LPS  days hr:min     m/sec    Flow   Depth
  -----------------------------------------------------------------------------
  1                    CONDUIT    818.18     0  02:17      3.15    0.28    0.37
  WS02001211WS02001212 CONDUIT    390.84     0  03:46      0.78    0.30    0.64
  WS02001212WS02001213 CONDUIT    392.59     0  03:45      1.32    0.61    0.45
  WS02001213WS02003059 CONDUIT    395.63     0  03:45      0.85    0.65    0.75
  WS02003059WS02003060 CONDUIT    399.93     0  03:45      0.95    0.26    0.63
  WS02003060WS02003069 CONDUIT    816.07     0  02:15      1.80    0.32    0.42
  WS02003066WSF200     CONDUIT    411.93     0  02:14      2.69    0.07    0.19
  WS02003067WS02003066 CONDUIT    411.94     0  02:14      1.04    0.13    0.38
  WS02003069WS02003072 CONDUIT    816.37     0  02:15      1.55    0.39    0.47
  WS02003072WS02003073 CONDUIT    816.37     0  02:16      1.64    1.76    0.45
  WS02004138WS02004139 CONDUIT    395.20     0  00:00      3.65    0.08    0.43
  WS02004139WS02001211 CONDUIT    381.78     0  03:44      0.91    0.48    0.59
  WS02004401WS02004402 CONDUIT    412.26     0  03:10      0.99    0.49    0.77
  WS02004402WS02004403 CONDUIT    412.24     0  03:11      0.99    0.59    0.79
  WS02004403WS02004404 CONDUIT    412.17     0  03:11      0.93    0.30    0.84
  WS02004404WS02004405 CONDUIT    412.31     0  03:11      1.10    4.04    0.88
  WS02004405WS02004406 CONDUIT    412.43     0  03:12      1.03    0.81    0.88
  WS02004406WS02004407 CONDUIT    412.18     0  03:11      0.89    0.18    0.57
  WS02004407WS02004409 CONDUIT    412.11     0  03:11      1.42    0.15    0.42
  WS02004409WS02004410 CONDUIT    412.04     0  03:12      0.92    0.53    0.58
  WS02004410WS02004411 CONDUIT    412.01     0  03:14      0.85    0.56    0.60
  WS02004411WS02004412 CONDUIT    411.97     0  03:12      0.81    0.59    0.61
  WS02004412WS02004413 CONDUIT    412.02     0  03:14      0.70    0.28    0.70
  WS02004413WS02003067 CONDUIT    411.93     0  02:13      0.96    0.18    0.54
  WS02006109WS02006110 CONDUIT    411.77     0  03:10      0.84    0.79    0.94
  WS02006110WS02006113 CONDUIT    412.23     0  03:10      1.03    0.38    0.75
  WS02006111WS02006112 CONDUIT    414.45     0  03:10      1.83    0.20    0.65
  WS02006112WS02006115 CONDUIT    412.97     0  03:10      0.71    0.24    0.78
  WS02006113WS02006111 CONDUIT    423.93     0  02:16      2.25    0.51    0.40
  WS02006115WS02006116 CONDUIT    412.51     0  03:10      0.98    0.53    0.66
  WS02006116WS02004401 CONDUIT    412.37     0  03:10      1.00    0.57    0.74
  WS02006228WS02006109 CONDUIT    410.54     0  03:10      1.06    1.79    1.00
  WS02006229WS02006228 CONDUIT    413.90     0  01:39      1.13    1.37    1.00
  WS02006230WS02006229 CONDUIT    410.56     0  03:10      1.22    9.14    1.00
  WS02006231WS02006230 CONDUIT    400.28     0  02:35      1.37    6.07    0.77
  WS02006232WS02006231 CONDUIT    400.33     0  02:34      1.08    0.84    0.92
  WS02006234WS02006232 CONDUIT    400.32     0  02:29      1.40    0.81    1.00
  WS02006235WS02006234 CONDUIT    402.27     0  02:21      1.30    4.24    0.99
  WS02006238WS02006235 CONDUIT    402.51     0  02:21      1.48    0.90    1.00
  WS02006239WS02006238 CONDUIT    402.49     0  02:22      1.21    1.29    1.00
  WS02006240WS02006239 CONDUIT    401.24     0  02:21      1.31    1.26    1.00
  WS02006242WS02006240 CONDUIT    400.77     0  02:22      1.17    1.59    1.00
  WS02006243WS02006242 CONDUIT    400.82     0  01:44      1.43    0.86    1.00
  WS02006245WS02006243 CONDUIT    401.42     0  01:44      1.45    1.19    1.00
  WS02006247WS02006245 CONDUIT    403.08     0  02:28      1.43    3.20    1.00
  WS02006248WS02006247 CONDUIT    401.02     0  02:22      1.43    0.87    1.00
  WS02006249WS02006248 CONDUIT    403.26     0  01:44      1.38    2.21    1.00
  WS02006251WS02006249 CONDUIT    458.97     0  00:00      1.99    1.32    1.00
  WS02006252WS02006251 CONDUIT    401.10     0  02:33     24.55    1.47    1.00
  WS02006256WS02006235 CONDUIT    288.91     0  00:00      4.23    3.06    1.00
  WSF200WS02003060     CONDUIT    411.94     0  02:14      1.43    0.09    0.30
  YS02001580YS02001583 CONDUIT     73.29     0  02:14      0.54    0.28    1.00
  YS02001583YS02001586 CONDUIT    127.85     0  02:14      0.55    0.19    1.00
  YS02001586YS02001590 CONDUIT    318.03     0  02:32      1.26    0.56    1.00
  YS02001590YS02001593 CONDUIT    318.14     0  02:31      1.13    2.00    1.00
  YS02001593YS02001596 CONDUIT    318.11     0  02:28      1.63    0.50    1.00
  YS02001596YS02001600 CONDUIT    318.08     0  02:31      1.12    0.62    1.00
  YS02001600YS02001601 CONDUIT    318.03     0  02:22      1.12    0.55    1.00
  YS02001601YS02001602 CONDUIT    492.21     0  02:14      1.74    1.78    1.00
  YS02001602YS02001605 CONDUIT    493.08     0  02:14      1.74   10.43    1.00
  YS02001605YS02001607 CONDUIT    493.10     0  02:14      1.74    2.70    1.00
  YS02001607YS02001610 CONDUIT    496.83     0  02:13      0.63    0.47    1.00
  YS02001610YS02001613 CONDUIT    498.16     0  02:13      0.63    0.57    1.00
  YS02001613YS02001616 CONDUIT    489.99     0  02:13      0.63    0.42    1.00
  YS02001616YS02001619 CONDUIT    488.78     0  02:14      0.65    0.85    1.00
  YS02001619YS02001622 CONDUIT    931.91     0  02:18      1.19    1.37    1.00
  YS02001622YS02001625 CONDUIT    931.12     0  02:18      1.19    0.50    1.00
  YS02001625YS02001629 CONDUIT    931.61     0  02:18      1.19    0.44    1.00
  YS02001629YS02163301 CONDUIT    931.47     0  02:18      1.19    1.15    1.00
  YS02001633YS02163601 CONDUIT   1346.11     0  02:18      1.71    1.41    1.00
  YS02001641YS02001644 CONDUIT   1345.54     0  02:18      1.71    4.35    1.00
  YS02001644YS02001647 CONDUIT   1703.68     0  02:18      2.19    1.00    1.00
  YS02001647YS02001649 CONDUIT   1702.00     0  02:18      2.30    0.90    1.00
  YS02001649YS02001757 CONDUIT   1875.40     0  02:19      2.47    1.14    1.00
  YS02001652YS02001649 CONDUIT    717.03     0  02:25      0.91    0.36    1.00
  YS02001655YS02001652 CONDUIT    714.62     0  02:25      1.24    0.35    1.00
  YS02001658YS02001655 CONDUIT    712.63     0  02:25      1.84    0.30    1.00
  YS02001661YS02001658 CONDUIT    711.99     0  02:25      2.23    0.28    1.00
  YS02001664YS02001661 CONDUIT    844.94     0  02:25      2.18    0.26    0.70
  YS02001745YS02001748 CONDUIT    445.09     0  02:22      2.03    0.17    0.87
  YS02001748YS02001751 CONDUIT    413.16     0  02:25      1.60    0.21    1.00
  YS02001751YS02001754 CONDUIT    412.71     0  02:25      1.34    0.20    1.00
  YS02001754YS02001757 CONDUIT    413.14     0  02:25      0.53    0.17    1.00
  YS02001757CaochengTiaoxuchi CONDUIT   3080.00     0  02:23      3.92    1.33    1.00
  YS02001759YS02001757 CONDUIT   1245.63     0  02:24      1.59    0.89    1.00
  YS02001762YS02001759 CONDUIT    682.61     0  02:23      0.87    0.79    1.00
  YS02001765YS02001762 CONDUIT    684.21     0  02:23      0.87    0.64    1.00
  YS02001767YS02001765 CONDUIT    685.59     0  02:23      0.87    0.86    1.00
  YS02001770YS02001767 CONDUIT    683.77     0  02:23      0.87    2.71    1.00
  YS02001774YS02001770 CONDUIT    271.54     0  02:19      0.35    0.17    1.00
  YS02001779YS02001774 CONDUIT    274.62     0  02:19      0.35    0.14    1.00
  YS02001783YS02001784 CONDUIT    977.06     0  02:24      1.94    1.35    1.00
  YS02001784YS02001785 CONDUIT    978.19     0  02:24      1.95    2.28    1.00
  YS02001786YS02001788 CONDUIT    978.72     0  02:24      1.95    1.89    1.00
  YS02001788YS02001790 CONDUIT    978.42     0  02:24      1.95    0.72    1.00
  YS02001790YS02001791 CONDUIT    978.19     0  02:23      2.25    1.06    1.00
  YS02001791YS02001793 CONDUIT    979.04     0  02:24      4.30    0.42    1.00
  YS02001793JiankangQianchi CONDUIT    978.92     0  02:24      1.54    0.08    1.00
  YS02001882YS02001884 CONDUIT     33.56     0  02:17      0.12    0.04    1.00
  YS02001884YS02001887 CONDUIT     52.26     0  02:16      0.09    0.07    1.00
  YS02001887YS02001890 CONDUIT    621.18     0  02:25      0.79    1.06    1.00
  YS02001890YS02001895 CONDUIT    515.43     0  02:26      0.66    0.24    1.00
  YS02001895YS02001898 CONDUIT    515.70     0  02:26      0.66    0.89    1.00
  YS02001898YS02001901 CONDUIT    516.12     0  02:26      0.66    0.33    1.00
  YS02001901YS02001904 CONDUIT    516.17     0  02:26      0.66    0.80    1.00
  YS02001904YS02001907 CONDUIT    516.12     0  02:26      0.66    0.18    1.00
  YS02001907YS02006553 CONDUIT    678.99     0  02:36      0.75    0.80    1.00
  YS02001910YS02001907 CONDUIT   1066.83     0  02:25      1.36    0.60    1.00
  YS02001915YS02001910 CONDUIT   1067.20     0  02:25      1.36    0.53    1.00
  YS02001918YS02001915 CONDUIT    470.77     0  02:20      0.60    0.26    1.00
  YS02001920YS02001918 CONDUIT    468.06     0  02:20      0.63    0.45    1.00
  YS02001923YS02001920 CONDUIT    463.94     0  02:20      0.71    0.21    1.00
  YS02001926YS02001923 CONDUIT    437.74     0  02:20      0.94    0.63    1.00
  YS02001929YS02001926 CONDUIT    428.43     0  02:20      1.08    0.20    1.00
  YS02006553YS02006556 CONDUIT    678.99     0  02:36      0.86    0.58    1.00
  YS02006556YS02006558 CONDUIT    682.38     0  02:36      0.87    0.54    1.00
  YS02006558YS02006561 CONDUIT    976.89     0  02:24      3.46    2.16    1.00
  YS02006561YS02001783 CONDUIT    977.30     0  02:24      1.94    0.51    1.00
  YS02163301YS02001633 CONDUIT    931.71     0  02:18      1.19    0.88    1.00
  YS02163601YS02164001 CONDUIT   1344.71     0  02:18      1.71    1.19    1.00
  YS02164001YS02001641 CONDUIT   1344.96     0  02:18      1.71    1.84    1.00
  CC-R1                PUMP       683.00     0  00:00              1.00
  CC-R2                PUMP       683.00     0  00:00              1.00
  CC-S1                PUMP       200.00     0  00:00              1.00
  CC-S2                PUMP       200.00     0  00:00              1.00
  JK-R1                PUMP      1000.00     0  00:00              1.00
  JK-R2                PUMP      1000.00     0  00:00              1.00
  JK-S                 PUMP       300.00     0  00:00              1.00
  XR-1                 PUMP        95.00     0  00:00              1.00
  XR-2                 PUMP        95.00     0  00:00              1.00
  XR-3                 PUMP        95.00     0  00:00              1.00
  XR-4                 PUMP        95.00     0  00:00              1.00
  
  
  ***************************
  Flow Classification Summary
  ***************************
  
  -------------------------------------------------------------------------------------
                      Adjusted    ---------- Fraction of Time in Flow Class ---------- 
                       /Actual         Up    Down  Sub   Sup   Up    Down  Norm  Inlet 
  Conduit               Length    Dry  Dry   Dry   Crit  Crit  Crit  Crit  Ltd   Ctrl  
  -------------------------------------------------------------------------------------
  1                       1.00   0.00  0.00  0.00  0.00  1.00  0.00  0.00  0.18  0.00
  WS02001211WS02001212    1.00   0.00  0.00  0.00  1.00  0.00  0.00  0.00  0.00  0.00
  WS02001212WS02001213    1.00   0.00  0.00  0.00  0.37  0.00  0.63  0.00  0.00  0.00
  WS02001213WS02003059    1.00   0.00  0.00  0.00  0.99  0.00  0.00  0.00  0.00  0.00
  WS02003059WS02003060    1.00   0.00  0.00  0.00  1.00  0.00  0.00  0.00  0.00  0.00
  WS02003060WS02003069    1.00   0.00  0.00  0.00  0.99  0.01  0.00  0.00  0.00  0.00
  WS02003066WSF200        1.00   0.02  0.10  0.00  0.00  0.88  0.00  0.00  0.87  0.00
  WS02003067WS02003066    1.00   0.10  0.02  0.00  0.89  0.00  0.00  0.00  0.00  0.00
  WS02003069WS02003072    1.00   0.00  0.00  0.00  0.99  0.01  0.00  0.00  0.00  0.00
  WS02003072WS02003073    1.00   0.00  0.00  0.00  0.00  0.00  0.00  1.00  0.00  0.00
  WS02004138WS02004139    1.00   0.00  0.00  0.00  0.99  0.01  0.00  0.00  1.00  0.00
  WS02004139WS02001211    1.00   0.00  0.00  0.00  1.00  0.00  0.00  0.00  0.00  0.00
  WS02004401WS02004402    1.00   0.02  0.00  0.00  0.98  0.00  0.00  0.00  0.00  0.00
  WS02004402WS02004403    1.00   0.02  0.00  0.00  0.98  0.00  0.00  0.00  0.00  0.00
  WS02004403WS02004404    1.00   0.00  0.03  0.00  0.97  0.00  0.00  0.00  0.00  0.00
  WS02004404WS02004405    1.00   0.00  0.00  0.00  1.00  0.00  0.00  0.00  0.00  0.00
  WS02004405WS02004406    1.00   0.00  0.00  0.00  1.00  0.00  0.00  0.00  0.00  0.00
  WS02004406WS02004407    1.00   0.00  0.05  0.00  0.95  0.00  0.00  0.00  0.00  0.00
  WS02004407WS02004409    1.00   0.05  0.00  0.00  0.94  0.01  0.00  0.00  0.94  0.00
  WS02004409WS02004410    1.00   0.05  0.00  0.00  0.95  0.00  0.00  0.00  0.02  0.00
  WS02004410WS02004411    1.00   0.05  0.00  0.00  0.95  0.00  0.00  0.00  0.00  0.00
  WS02004411WS02004412    1.00   0.05  0.00  0.00  0.95  0.00  0.00  0.00  0.00  0.00
  WS02004412WS02004413    1.00   0.05  0.00  0.00  0.94  0.00  0.00  0.00  0.01  0.00
  WS02004413WS02003067    1.00   0.06  0.04  0.00  0.00  0.00  0.90  0.00  0.00  0.00
  WS02006109WS02006110    1.00   0.00  0.01  0.00  0.98  0.00  0.01  0.00  0.00  0.00
  WS02006110WS02006113    1.00   0.01  0.01  0.00  0.98  0.00  0.00  0.00  0.00  0.00
  WS02006111WS02006112    1.00   0.02  0.00  0.00  0.98  0.00  0.00  0.00  0.98  0.00
  WS02006112WS02006115    1.00   0.02  0.00  0.00  0.97  0.00  0.00  0.00  0.00  0.00
  WS02006113WS02006111    1.00   0.02  0.00  0.00  0.00  0.98  0.00  0.00  0.11  0.00
  WS02006115WS02006116    1.00   0.02  0.00  0.00  0.97  0.00  0.00  0.01  0.00  0.00
  WS02006116WS02004401    1.00   0.02  0.00  0.00  0.98  0.00  0.00  0.00  0.00  0.00
  WS02006228WS02006109    1.00   0.00  0.00  0.00  1.00  0.00  0.00  0.00  0.00  0.00
  WS02006229WS02006228    1.00   0.00  0.00  0.00  0.99  0.00  0.00  0.01  0.00  0.00
  WS02006230WS02006229    1.00   0.00  0.00  0.00  0.99  0.00  0.00  0.01  0.00  0.00
  WS02006231WS02006230    1.00   0.00  0.00  0.00  0.25  0.00  0.75  0.00  0.00  0.00
  WS02006232WS02006231    1.00   0.00  0.00  0.00  0.99  0.00  0.01  0.00  0.00  0.00
  WS02006234WS02006232    1.00   0.00  0.00  0.00  1.00  0.00  0.00  0.00  0.52  0.00
  WS02006235WS02006234    1.00   0.00  0.00  0.00  0.44  0.00  0.56  0.00  0.00  0.00
  WS02006238WS02006235    1.00   0.00  0.00  0.00  1.00  0.00  0.00  0.00  0.00  0.00
  WS02006239WS02006238    1.00   0.00  0.00  0.00  1.00  0.00  0.00  0.00  0.61  0.00
  WS02006240WS02006239    1.00   0.00  0.00  0.00  0.35  0.00  0.00  0.65  0.01  0.00
  WS02006242WS02006240    1.00   0.00  0.00  0.00  0.99  0.00  0.01  0.00  0.00  0.00
  WS02006243WS02006242    1.00   0.00  0.00  0.00  0.99  0.00  0.00  0.01  0.70  0.00
  WS02006245WS02006243    1.00   0.00  0.00  0.00  0.40  0.00  0.00  0.59  0.00  0.00
  WS02006247WS02006245    1.00   0.00  0.00  0.00  0.99  0.00  0.00  0.01  0.00  0.00
  WS02006248WS02006247    1.00   0.00  0.00  0.00  0.99  0.00  0.00  0.01  0.12  0.00
  WS02006249WS02006248    1.00   0.00  0.00  0.00  0.30  0.00  0.70  0.00  0.00  0.00
  WS02006251WS02006249    1.00   0.00  0.00  0.00  1.00  0.00  0.00  0.00  0.71  0.00
  WS02006252WS02006251    1.00   0.00  0.73  0.00  0.00  0.00  0.27  0.00  0.00  0.00
  WS02006256WS02006235    1.00   0.00  0.00  0.00  1.00  0.00  0.00  0.00  0.00  0.00
  WSF200WS02003060        1.00   0.00  0.02  0.00  0.98  0.00  0.00  0.00  0.65  0.00
  YS02001580YS02001583    1.00   0.28  0.54  0.00  0.18  0.00  0.00  0.00  0.63  0.00
  YS02001583YS02001586    1.00   0.48  0.29  0.00  0.23  0.00  0.00  0.00  0.64  0.00
  YS02001586YS02001590    1.00   0.13  0.00  0.00  0.41  0.04  0.00  0.43  0.35  0.00
  YS02001590YS02001593    1.00   0.13  0.01  0.00  0.11  0.00  0.75  0.00  0.00  0.00
  YS02001593YS02001596    1.00   0.13  0.00  0.00  0.74  0.00  0.00  0.12  0.63  0.00
  YS02001596YS02001600    1.00   0.14  0.00  0.00  0.79  0.01  0.00  0.07  0.03  0.00
  YS02001600YS02001601    1.00   0.13  0.01  0.00  0.86  0.00  0.00  0.00  0.04  0.00
  YS02001601YS02001602    1.00   0.13  0.01  0.00  0.87  0.00  0.00  0.00  0.00  0.00
  YS02001602YS02001605    1.00   0.13  0.00  0.00  0.86  0.00  0.00  0.00  0.00  0.00
  YS02001605YS02001607    1.00   0.14  0.00  0.00  0.86  0.00  0.00  0.00  0.00  0.00
  YS02001607YS02001610    1.00   0.13  0.01  0.00  0.86  0.00  0.00  0.00  0.01  0.00
  YS02001610YS02001613    1.00   0.13  0.00  0.00  0.87  0.00  0.00  0.00  0.00  0.00
  YS02001613YS02001616    1.00   0.13  0.00  0.00  0.87  0.00  0.00  0.00  0.00  0.00
  YS02001616YS02001619    1.00   0.13  0.00  0.00  0.87  0.00  0.00  0.00  0.00  0.00
  YS02001619YS02001622    1.00   0.13  0.00  0.00  0.87  0.00  0.00  0.00  0.00  0.00
  YS02001622YS02001625    1.00   0.13  0.00  0.00  0.87  0.00  0.00  0.00  0.04  0.00
  YS02001625YS02001629    1.00   0.13  0.05  0.00  0.75  0.00  0.07  0.00  0.00  0.00
  YS02001629YS02163301    1.00   0.15  0.01  0.00  0.84  0.00  0.00  0.00  0.00  0.00
  YS02001633YS02163601    1.00   0.00  0.01  0.00  0.99  0.00  0.00  0.00  0.15  0.00
  YS02001641YS02001644    1.00   0.00  0.01  0.00  0.99  0.00  0.00  0.00  0.00  0.00
  YS02001644YS02001647    1.00   0.00  0.17  0.00  0.83  0.00  0.00  0.00  0.00  0.00
  YS02001647YS02001649    1.00   0.00  0.17  0.00  0.77  0.06  0.00  0.00  0.02  0.00
  YS02001649YS02001757    1.00   0.00  0.00  0.00  0.93  0.07  0.00  0.00  0.19  0.00
  YS02001652YS02001649    1.00   0.00  0.00  0.00  0.96  0.04  0.00  0.00  0.18  0.00
  YS02001655YS02001652    1.00   0.00  0.00  0.00  0.75  0.01  0.00  0.24  0.03  0.00
  YS02001658YS02001655    1.00   0.00  0.14  0.00  0.72  0.14  0.00  0.00  0.08  0.00
  YS02001661YS02001658    1.00   0.14  0.00  0.00  0.71  0.15  0.00  0.00  0.06  0.00
  YS02001664YS02001661    1.00   0.13  0.00  0.00  0.81  0.07  0.00  0.00  0.86  0.00
  YS02001745YS02001748    1.00   0.00  0.00  0.00  0.71  0.00  0.00  0.29  0.00  0.00
  YS02001748YS02001751    1.00   0.00  0.00  0.00  0.85  0.15  0.00  0.00  0.13  0.00
  YS02001751YS02001754    1.00   0.00  0.00  0.00  0.73  0.01  0.00  0.26  0.01  0.00
  YS02001754YS02001757    1.00   0.00  0.00  0.00  1.00  0.00  0.00  0.00  0.26  0.00
  YS02001757CaochengTiaoxuchi    1.00   0.00  0.00  0.00  0.99  0.01  0.00  0.00  0.24  0.00
  YS02001759YS02001757    1.00   0.00  0.00  0.00  1.00  0.00  0.00  0.00  0.08  0.00
  YS02001762YS02001759    1.00   0.00  0.00  0.00  1.00  0.00  0.00  0.00  0.04  0.00
  YS02001765YS02001762    1.00   0.00  0.00  0.00  1.00  0.00  0.00  0.00  0.15  0.00
  YS02001767YS02001765    1.00   0.00  0.00  0.00  1.00  0.00  0.00  0.00  0.00  0.00
  YS02001770YS02001767    1.00   0.00  0.00  0.00  1.00  0.00  0.00  0.00  0.00  0.00
  YS02001774YS02001770    1.00   0.00  0.13  0.00  0.87  0.00  0.00  0.00  0.03  0.00
  YS02001779YS02001774    1.00   0.00  0.00  0.00  1.00  0.00  0.00  0.00  0.18  0.00
  YS02001783YS02001784    1.00   0.00  0.18  0.00  0.82  0.00  0.00  0.00  0.00  0.00
  YS02001784YS02001785    1.00   0.00  0.00  0.00  1.00  0.00  0.00  0.00  0.17  0.00
  YS02001786YS02001788    1.00   0.00  0.00  0.00  0.94  0.06  0.00  0.00  0.00  0.00
  YS02001788YS02001790    1.00   0.00  0.00  0.00  0.93  0.07  0.00  0.00  0.19  0.00
  YS02001790YS02001791    1.00   0.00  0.00  0.00  0.76  0.24  0.00  0.00  0.05  0.00
  YS02001791YS02001793    1.00   0.00  0.00  0.00  0.75  0.25  0.00  0.00  0.01  0.00
  YS02001793JiankangQianchi    1.00   0.00  0.00  0.00  0.93  0.06  0.00  0.00  0.22  0.00
  YS02001882YS02001884    1.00   0.15  0.01  0.00  0.84  0.00  0.00  0.00  0.00  0.00
  YS02001884YS02001887    1.00   0.06  0.05  0.00  0.89  0.00  0.00  0.00  0.00  0.00
  YS02001887YS02001890    1.00   0.00  0.00  0.00  0.97  0.00  0.03  0.00  0.00  0.00
  YS02001890YS02001895    1.00   0.00  0.16  0.00  0.83  0.00  0.00  0.00  0.00  0.00
  YS02001895YS02001898    1.00   0.17  0.00  0.00  0.81  0.00  0.02  0.00  0.00  0.00
  YS02001898YS02001901    1.00   0.17  0.00  0.00  0.83  0.00  0.00  0.00  0.01  0.00
  YS02001901YS02001904    1.00   0.17  0.00  0.00  0.83  0.00  0.00  0.00  0.00  0.00
  YS02001904YS02001907    1.00   0.00  0.16  0.00  0.83  0.00  0.00  0.00  0.00  0.00
  YS02001907YS02006553    1.00   0.00  0.02  0.00  0.98  0.00  0.00  0.00  0.00  0.00
  YS02001910YS02001907    1.00   0.00  0.00  0.00  0.97  0.00  0.00  0.03  0.12  0.00
  YS02001915YS02001910    1.00   0.00  0.00  0.00  0.97  0.03  0.00  0.00  0.16  0.00
  YS02001918YS02001915    1.00   0.00  0.01  0.00  0.98  0.02  0.00  0.00  0.77  0.00
  YS02001920YS02001918    1.00   0.00  0.01  0.00  0.99  0.00  0.00  0.00  0.00  0.00
  YS02001923YS02001920    1.00   0.00  0.00  0.00  1.00  0.00  0.00  0.00  0.93  0.00
  YS02001926YS02001923    1.00   0.00  0.07  0.00  0.05  0.00  0.88  0.00  0.00  0.00
  YS02001929YS02001926    1.00   0.00  0.13  0.00  0.87  0.00  0.00  0.00  0.83  0.00
  YS02006553YS02006556    1.00   0.01  0.00  0.00  0.99  0.00  0.00  0.00  0.03  0.00
  YS02006556YS02006558    1.00   0.00  0.00  0.00  1.00  0.00  0.00  0.00  0.00  0.00
  YS02006558YS02006561    1.00   0.18  0.00  0.00  0.06  0.75  0.00  0.00  0.18  0.00
  YS02006561YS02001783    1.00   0.18  0.00  0.00  0.74  0.08  0.00  0.00  0.72  0.00
  YS02163301YS02001633    1.00   0.00  0.15  0.00  0.85  0.00  0.00  0.00  0.00  0.00
  YS02163601YS02164001    1.00   0.00  0.08  0.00  0.92  0.00  0.00  0.00  0.00  0.00
  YS02164001YS02001641    1.00   0.01  0.07  0.00  0.92  0.00  0.00  0.00  0.05  0.00
  
  
  *************************
  Conduit Surcharge Summary
  *************************
  
  ----------------------------------------------------------------------------
                                                           Hours        Hours 
                         --------- Hours Full --------   Above Full   Capacity
  Conduit                Both Ends  Upstream  Dnstream   Normal Flow   Limited
  ----------------------------------------------------------------------------
  WS02003072WS02003073        0.01      0.01      0.01      2.39         0.01
  WS02004404WS02004405        0.01      0.01      0.01      2.24         0.01
  WS02006109WS02006110        0.01      0.01      1.91      0.01         0.01
  WS02006110WS02006113        0.01      0.01      1.89      0.01         0.01
  WS02006111WS02006112        0.01      0.01      1.96      0.01         0.01
  WS02006228WS02006109        1.85      1.92      1.85      2.07         1.85
  WS02006229WS02006228        1.84      1.87      1.84      2.01         1.84
  WS02006230WS02006229        1.96      1.98      1.96      2.51         1.96
  WS02006231WS02006230        0.01      0.01      0.01      2.37         0.01
  WS02006232WS02006231        0.01      0.01      1.92      0.01         0.01
  WS02006234WS02006232        1.82      1.82      1.92      0.01         0.01
  WS02006235WS02006234        0.01      0.01      1.86      2.28         0.01
  WS02006238WS02006235        1.87      1.87      1.93      0.01         0.01
  WS02006239WS02006238        1.89      1.91      1.89      2.05         1.89
  WS02006240WS02006239        1.87      1.88      1.87      2.07         1.87
  WS02006242WS02006240        1.87      1.87      1.97      2.11         0.01
  WS02006243WS02006242        1.89      1.89      1.95      0.01         0.01
  WS02006245WS02006243        1.88      1.89      1.88      2.11         1.88
  WS02006247WS02006245        1.89      1.91      1.89      2.17         1.89
  WS02006248WS02006247        1.89      1.89      1.90      0.01         0.01
  WS02006249WS02006248        1.88      1.88      1.90      2.17         0.01
  WS02006251WS02006249        1.90      1.90      1.90      2.15         1.90
  WS02006252WS02006251        2.18      2.18      2.18      2.18         0.01
  WS02006256WS02006235        2.32      2.33      3.08      0.02         0.01
  YS02001580YS02001583        0.47      0.47      0.51      0.01         0.01
  YS02001583YS02001586        0.48      0.48      0.63      0.01         0.01
  YS02001586YS02001590        0.64      0.64      0.73      0.01         0.01
  YS02001590YS02001593        0.74      0.74      0.76      0.72         0.01
  YS02001593YS02001596        0.75      0.75      0.90      0.01         0.01
  YS02001596YS02001600        0.97      0.97      1.26      0.01         0.01
  YS02001600YS02001601        5.89      5.89      6.15      0.01         0.01
  YS02001601YS02001602        6.07      6.07      6.17      0.94         0.01
  YS02001602YS02001605        6.04      6.04      6.07      2.16         0.06
  YS02001605YS02001607        5.99      6.04      5.99      1.21         1.06
  YS02001607YS02001610        0.93      0.93      1.08      0.01         0.01
  YS02001610YS02001613        0.94      0.94      1.08      0.01         0.01
  YS02001613YS02001616        0.83      0.83      0.94      0.01         0.01
  YS02001616YS02001619        0.82      0.82      0.83      0.01         0.01
  YS02001619YS02001622        0.82      0.82      0.83      0.59         0.51
  YS02001622YS02001625        0.83      0.83      5.82      0.01         0.01
  YS02001625YS02001629        0.80      0.80      5.82      0.01         0.01
  YS02001629YS02163301        5.82      5.82      5.82      0.09         0.09
  YS02001633YS02163601        5.83      5.83      5.84      0.13         0.14
  YS02001641YS02001644        5.77      5.79      5.77      1.26         0.87
  YS02001644YS02001647        5.69      5.69      5.77      0.01         0.01
  YS02001647YS02001649        5.69      5.69      5.70      0.01         0.01
  YS02001649YS02001757        5.70      5.70      5.70      0.11         0.05
  YS02001652YS02001649        5.67      5.67      5.70      0.01         0.01
  YS02001655YS02001652        0.71      0.71      5.67      0.01         0.01
  YS02001658YS02001655        0.16      0.16      0.71      0.01         0.01
  YS02001661YS02001658        0.01      0.01      0.16      0.01         0.01
  YS02001664YS02001661        0.01      0.01      0.02      0.01         0.01
  YS02001745YS02001748        0.01      0.01      0.10      0.01         0.01
  YS02001748YS02001751        0.13      0.13      0.63      0.01         0.01
  YS02001751YS02001754        0.63      0.63      5.66      0.01         0.01
  YS02001754YS02001757        5.67      5.67      5.70      0.01         0.01
  YS02001757CaochengTiaoxuchi        5.70      5.70      5.72      0.23         0.21
  YS02001759YS02001757        5.68      5.68      5.70      0.01         0.01
  YS02001762YS02001759        5.68      5.68      5.68      0.01         0.02
  YS02001765YS02001762        5.68      5.68      5.68      0.01         0.01
  YS02001767YS02001765        5.68      5.68      5.68      0.01         0.02
  YS02001770YS02001767        5.68      5.68      5.68      0.39         0.30
  YS02001774YS02001770        5.67      5.67      5.68      0.01         0.01
  YS02001779YS02001774        5.66      5.66      5.68      0.01         0.01
  YS02001783YS02001784        0.64      0.64      0.65      0.49         0.49
  YS02001784YS02001785        0.64      0.65      0.64      0.77         0.64
  YS02001786YS02001788        0.64      0.64      0.64      0.69         0.64
  YS02001788YS02001790        0.64      0.64      5.94      0.01         0.01
  YS02001790YS02001791        5.94      5.94      5.95      0.29         0.29
  YS02001791YS02001793        5.95      5.95      6.00      0.01         0.01
  YS02001793JiankangQianchi        5.99      5.99      6.28      0.01         0.01
  YS02001882YS02001884        0.40      0.40      0.40      0.01         0.01
  YS02001884YS02001887        0.43      0.43      0.44      0.01         0.01
  YS02001887YS02001890        0.45      0.45      0.46      0.03         0.01
  YS02001890YS02001895        0.38      0.38      0.47      0.01         0.01
  YS02001895YS02001898        0.38      0.38      0.38      0.01         0.01
  YS02001898YS02001901        0.39      0.39      0.42      0.01         0.01
  YS02001901YS02001904        0.42      0.42      0.42      0.01         0.01
  YS02001904YS02001907        0.42      0.42      0.67      0.01         0.01
  YS02001907YS02006553        0.80      0.80      0.86      0.01         0.01
  YS02001910YS02001907        0.47      0.47      0.66      0.01         0.01
  YS02001915YS02001910        0.39      0.39      0.47      0.01         0.01
  YS02001918YS02001915        0.31      0.31      0.39      0.01         0.01
  YS02001920YS02001918        0.31      0.31      0.32      0.01         0.01
  YS02001923YS02001920        0.25      0.25      0.32      0.01         0.01
  YS02001926YS02001923        0.01      0.01      0.03      0.01         0.01
  YS02001929YS02001926        0.01      0.01      0.03      0.01         0.01
  YS02006553YS02006556        0.56      0.56      0.67      0.01         0.01
  YS02006556YS02006558        0.60      0.60      0.69      0.01         0.01
  YS02006558YS02006561        0.43      0.55      0.43      0.75         0.43
  YS02006561YS02001783        0.35      0.35      0.64      0.01         0.01
  YS02163301YS02001633        5.82      5.82      5.84      0.01         0.01
  YS02163601YS02164001        5.80      5.80      5.84      0.10         0.01
  YS02164001YS02001641        5.79      5.80      5.79      0.52         0.45
  
  
  ***************
  Pumping Summary
  ***************
  
  ---------------------------------------------------------------------------------------------------------
                                                  Min       Avg       Max     Total     Power    % Time Off
                        Percent   Number of      Flow      Flow      Flow    Volume     Usage    Pump Curve
  Pump                 Utilized   Start-Ups       LPS       LPS       LPS  10^6 ltr     Kw-hr    Low   High
  ---------------------------------------------------------------------------------------------------------
  CC-R1                    1.06           1      0.00    683.00    683.00     0.208      3.51    0.0  100.0
  CC-R2                    1.06           1      0.00    683.00    683.00     0.208      3.51    0.0  100.0
  CC-S1                   27.21           2      0.00    200.00    200.00     1.567      8.06    0.0   39.7
  CC-S2                   27.21           2      0.00    200.00    200.00     1.567      8.06    0.0   39.7
  JK-R1                    0.97           2      0.00    347.46   1000.00     0.078      0.47    0.0    0.0
  JK-R2                    0.97           2      0.00    347.46   1000.00     0.078      0.47    0.0    0.0
  JK-S                     0.97           2      0.00    104.30    300.00     0.023      0.44    0.0    0.0
  XR-1                   100.00           1      0.00     95.00     95.00     2.736     68.18    0.0    0.0
  XR-2                   100.00           1      0.00     95.00     95.00     2.736     68.18    0.0    0.0
  XR-3                   100.00           1      0.00     95.00     95.00     2.736     68.18    0.0    0.0
  XR-4                   100.00           1      0.00     95.00     95.00     2.736     68.18    0.0    0.0
  

  Analysis begun on:  Wed Nov  5 16:29:57 2025
  Analysis ended on:  Wed Nov  5 16:30:00 2025
  Total elapsed time: 00:00:03