
  EPA STORM WATER MANAGEMENT MODEL - VERSION 5.2 (Build 5.2.4)
  PYSWMM TOOLKIT API - VERSION v1.0 (2023-11-27)
  ------------------------------------------------------------

  WARNING 04: minimum elevation drop used for Conduit WS02004404WS02004405
  WARNING 03: negative offset ignored for Link YS02001904YS02001907
  
  ****************
  Analysis Options
  ****************
  Flow Units ............... LPS
  Process Models:
    Rainfall/Runoff ........ YES
    RDII ................... NO
    Snowmelt ............... NO
    Groundwater ............ NO
    Flow Routing ........... YES
    Ponding Allowed ........ NO
    Water Quality .......... NO
  Infiltration Method ...... HORTON
  Flow Routing Method ...... DYNWAVE
  Surcharge Method ......... EXTRAN
  Starting Date ............ 08/28/2015 08:00:00
  Ending Date .............. 08/28/2015 16:00:00
  Antecedent Dry Days ...... 8.0
  Report Time Step ......... 00:01:00
  Wet Time Step ............ 00:01:00
  Dry Time Step ............ 00:01:00
  Routing Time Step ........ 30.00 sec
  Variable Time Step ....... YES
  Maximum Trials ........... 8
  Number of Threads ........ 4
  Head Tolerance ........... 0.001500 m
  
  
  **************************        Volume         Depth
  Runoff Quantity Continuity     hectare-m            mm
  **************************     ---------       -------
  Initial LID Storage ......         0.049         1.488
  Total Precipitation ......         1.262        38.059
  Evaporation Loss .........         0.000         0.000
  Infiltration Loss ........         0.070         2.119
  Surface Runoff ...........         0.901        27.155
  Final Storage ............         0.341        10.282
  Continuity Error (%) .....        -0.022
  
  
  **************************        Volume        Volume
  Flow Routing Continuity        hectare-m      10^6 ltr
  **************************     ---------     ---------
  Dry Weather Inflow .......         0.602         6.020
  Wet Weather Inflow .......         0.901         9.006
  Groundwater Inflow .......         0.000         0.000
  RDII Inflow ..............         0.000         0.000
  External Inflow ..........         0.105         1.045
  External Outflow .........         1.590        15.899
  Flooding Loss ............         0.236         2.358
  Evaporation Loss .........         0.000         0.000
  Exfiltration Loss ........         0.000         0.000
  Initial Stored Volume ....         0.303         3.031
  Final Stored Volume ......         0.548         5.481
  Continuity Error (%) .....       -24.269
  
  
  *************************
  Highest Continuity Errors
  *************************
  Node YS02001583 (-15.48%)
  Node YS02001774 (8.06%)
  Node WS02006256 (-6.54%)
  Node YS02001884 (4.60%)
  Node YS02001767 (1.58%)
  
  
  ***************************
  Time-Step Critical Elements
  ***************************
  Link WS02006238WS02006235 (35.32%)
  Link WS02006235WS02006234 (14.54%)
  Link WS02001212WS02001213 (14.05%)
  Link WS02006252WS02006251 (12.15%)
  Link WS02003066WSF200 (9.77%)
  
  
  ********************************
  Highest Flow Instability Indexes
  ********************************
  Link WS02006113WS02006111 (46)
  Link WS02006256WS02006235 (24)
  Link WS02006111WS02006112 (22)
  Link WS02006110WS02006113 (16)
  Link WS02006238WS02006235 (12)
  
  
  *********************************
  Most Frequent Nonconverging Nodes
  *********************************
  Node CC-1 (4.79%)
  Node CC-2 (4.79%)
  Node JK-1 (4.79%)
  Node JK-2 (4.79%)
  Node WSC (4.79%)
  
  
  *************************
  Routing Time Step Summary
  *************************
  Minimum Time Step           :     0.00 sec
  Average Time Step           :     2.86 sec
  Maximum Time Step           :     6.46 sec
  % of Time in Steady State   :     0.00
  Average Iterations per Step :     2.65
  % of Steps Not Converging   :     4.79
  Time Step Frequencies       :
     30.000 - 13.228 sec      :     0.00 %
     13.228 -  5.833 sec      :    15.30 %
      5.833 -  2.572 sec      :    37.67 %
      2.572 -  1.134 sec      :    29.81 %
      1.134 -  0.500 sec      :    17.22 %
  
  
  ***************************
  Subcatchment Runoff Summary
  ***************************
  
  ------------------------------------------------------------------------------------------------------------------------------
                            Total      Total      Total      Total     Imperv       Perv      Total       Total     Peak  Runoff
                           Precip      Runon       Evap      Infil     Runoff     Runoff     Runoff      Runoff   Runoff   Coeff
  Subcatchment                 mm         mm         mm         mm         mm         mm         mm    10^6 ltr      LPS
  ------------------------------------------------------------------------------------------------------------------------------
  sub60                     38.06       0.00       0.00       1.28      24.92       2.25      27.17        0.36   253.66   0.714
  sub61                     38.06       0.00       0.00       1.96      24.90       3.33      28.23        0.52   365.94   0.742
  sub62                     38.06       0.00       0.00       0.87      26.54       1.53      28.06        0.77   500.44   0.737
  sub63                     38.06       0.00       0.00       3.58      21.33       5.46      26.78        0.61   398.59   0.704
  sub64                     38.06       0.00       0.00       1.72      24.27       2.73      27.00        0.65   396.78   0.710
  sub65                     38.06       0.00       0.00       1.58      26.19       2.49      28.68        0.79   461.35   0.754
  sub66                     38.06       0.00       0.00       4.14      20.60       4.61      25.21        1.18   568.09   0.662
  sub67                     38.06       0.00       0.00       0.87      27.22       1.59      28.80        0.54   397.76   0.757
  sub68                     38.06       0.00       0.00       1.50      24.03       2.56      26.59        0.73   498.30   0.699
  sub69                     38.06       0.00       0.00       1.34      25.56       3.19      28.75        1.06   604.03   0.755
  sub70                     38.06       0.00       0.00       4.46      20.46       6.13      26.59        0.77   329.68   0.699
  sub71                     38.06       0.00       0.00       0.80      24.10       1.38      25.48        0.67   406.67   0.669
  sub72                     38.06       0.00       0.00       0.76      26.02       1.27      27.30        0.38   205.22   0.717
  

  ***********************
  LID Performance Summary
  ***********************

  --------------------------------------------------------------------------------------------------------------------
                                         Total      Evap     Infil   Surface    Drain    Initial     Final  Continuity
                                        Inflow      Loss      Loss   Outflow   Outflow   Storage   Storage       Error
  Subcatchment      LID Control             mm        mm        mm        mm        mm        mm        mm           %
  --------------------------------------------------------------------------------------------------------------------
  sub60             GreenRoof            38.06      0.00      0.00      0.00      0.00      7.05     45.12       -0.02
  sub61             GreenRoof            38.06      0.00      0.00      0.00      0.00      7.05     45.12       -0.02
  sub62             GreenRoof            38.06      0.00      0.00      0.00      0.00      7.05     45.12       -0.02
  sub63             GreenRoof            38.06      0.00      0.00      0.00      0.00      7.05     45.12       -0.02
  sub64             GreenRoof            38.06      0.00      0.00      0.00      0.00      7.05     45.12       -0.02
  sub65             GreenRoof            38.06      0.00      0.00      0.00      0.00      7.05     45.12       -0.02
  sub66             GreenRoof            38.06      0.00      0.00      0.00      0.00      7.05     45.12       -0.02
  sub67             GreenRoof            38.06      0.00      0.00      0.00      0.00      7.05     45.12       -0.02
  sub68             GreenRoof            38.06      0.00      0.00      0.00      0.00      7.05     45.12       -0.02
  sub69             GreenRoof            38.06      0.00      0.00      0.00      0.00      7.05     45.12       -0.02
  sub70             GreenRoof            38.06      0.00      0.00      0.00      0.00      7.05     45.12       -0.02
  sub71             GreenRoof            38.06      0.00      0.00      0.00      0.00      7.05     45.12       -0.02
  sub72             GreenRoof            38.06      0.00      0.00      0.00      0.00      7.05     45.12       -0.02
  
  ******************
  Node Depth Summary
  ******************
  
  ---------------------------------------------------------------------------------
                                 Average  Maximum  Maximum  Time of Max    Reported
                                   Depth    Depth      HGL   Occurrence   Max Depth
  Node                 Type       Meters   Meters   Meters  days hr:min      Meters
  ---------------------------------------------------------------------------------
  WS02001211           JUNCTION     0.76     0.78     5.62     0  02:30        0.78
  WS02001212           JUNCTION     0.46     0.49     5.55     0  02:48        0.49
  WS02001213           JUNCTION     0.68     0.73     5.49     0  02:47        0.73
  WS02003059           JUNCTION     0.73     0.78     5.47     0  02:47        0.78
  WS02003060           JUNCTION     0.38     0.47     5.41     0  02:46        0.47
  WS02003066           JUNCTION     0.16     0.27     5.82     0  02:21        0.27
  WS02003067           JUNCTION     0.44     0.65     5.97     0  02:21        0.65
  WS02003069           JUNCTION     0.43     0.54     5.12     0  02:47        0.54
  WS02003072           JUNCTION     0.49     0.60     4.97     0  02:47        0.60
  WS02003073           JUNCTION     0.29     0.37     4.43     0  02:28        0.37
  WS02004138           JUNCTION     0.19     0.20     7.45     0  00:00        0.19
  WS02004139           JUNCTION     0.71     0.73     5.64     0  02:29        0.73
  WS02004401           JUNCTION     0.52     0.75     6.75     0  02:20        0.75
  WS02004402           JUNCTION     0.56     0.78     6.74     0  02:18        0.78
  WS02004403           JUNCTION     0.58     0.80     6.73     0  02:18        0.80
  WS02004404           JUNCTION     0.66     0.88     6.73     0  02:19        0.88
  WS02004405           JUNCTION     0.65     0.88     6.73     0  02:19        0.87
  WS02004406           JUNCTION     0.67     0.88     6.71     0  02:18        0.88
  WS02004407           JUNCTION     0.14     0.26     6.57     0  02:19        0.26
  WS02004409           JUNCTION     0.32     0.57     6.34     0  02:19        0.57
  WS02004410           JUNCTION     0.34     0.59     6.31     0  02:24        0.59
  WS02004411           JUNCTION     0.37     0.61     6.29     0  02:20        0.61
  WS02004412           JUNCTION     0.39     0.62     6.26     0  02:25        0.62
  WS02004413           JUNCTION     0.55     0.79     6.26     0  02:21        0.79
  WS02006109           JUNCTION     0.59     0.83     7.45     0  02:02        0.83
  WS02006110           JUNCTION     0.60     0.82     7.41     0  02:00        0.82
  WS02006111           JUNCTION     0.15     0.25     6.96     0  02:17        0.25
  WS02006112           JUNCTION     0.68     0.93     6.82     0  02:17        0.93
  WS02006113           JUNCTION     0.23     0.39     7.29     0  02:12        0.39
  WS02006115           JUNCTION     0.41     0.65     6.78     0  02:18        0.65
  WS02006116           JUNCTION     0.49     0.73     6.77     0  03:22        0.73
  WS02006228           JUNCTION     0.57     0.84     7.49     0  02:02        0.84
  WS02006229           JUNCTION     0.54     0.82     7.52     0  02:02        0.82
  WS02006230           JUNCTION     0.53     0.86     7.60     0  02:08        0.86
  WS02006231           JUNCTION     0.35     0.60     7.72     0  02:08        0.60
  WS02006232           JUNCTION     0.47     0.75     7.79     0  02:09        0.75
  WS02006234           JUNCTION     0.39     0.71     7.87     0  02:08        0.71
  WS02006235           JUNCTION     0.42     0.76     7.93     0  02:13        0.76
  WS02006238           JUNCTION     0.45     0.81     7.95     0  02:01        0.80
  WS02006239           JUNCTION     0.42     0.81     8.02     0  02:05        0.81
  WS02006240           JUNCTION     0.40     0.79     8.08     0  02:05        0.79
  WS02006242           JUNCTION     0.47     0.90     8.17     0  02:00        0.90
  WS02006243           JUNCTION     0.40     0.84     8.26     0  02:04        0.84
  WS02006245           JUNCTION     0.40     0.86     8.34     0  02:06        0.85
  WS02006247           JUNCTION     0.42     0.89     8.39     0  02:04        0.89
  WS02006248           JUNCTION     0.39     0.86     8.44     0  02:08        0.85
  WS02006249           JUNCTION     0.42     0.89     8.49     0  01:59        0.89
  WS02006251           JUNCTION     0.41     0.91     8.58     0  02:06        0.91
  WS02006252           JUNCTION     0.30     1.50     9.74     0  00:00        0.99
  WS02006256           JUNCTION     0.65     2.35     9.28     0  00:00        2.35
  WSF200               JUNCTION     0.13     0.25     5.48     0  02:21        0.25
  YS02001580           JUNCTION     0.04     1.05     9.59     0  02:00        0.80
  YS02001583           JUNCTION     0.07     1.14     9.64     0  02:00        0.84
  YS02001586           JUNCTION     0.11     1.13     9.30     0  02:00        1.13
  YS02001590           JUNCTION     0.19     1.40     9.26     0  02:00        1.38
  YS02001593           JUNCTION     0.13     1.36     9.22     0  02:00        1.30
  YS02001596           JUNCTION     0.18     1.70     9.12     0  02:00        1.66
  YS02001600           JUNCTION     0.24     1.87     9.00     0  02:00        1.86
  YS02001601           JUNCTION     0.46     2.06     8.90     0  02:00        2.06
  YS02001602           JUNCTION     0.38     1.87     8.77     0  02:00        1.87
  YS02001605           JUNCTION     0.36     1.78     8.68     0  02:00        1.77
  YS02001607           JUNCTION     0.37     1.65     8.50     0  02:00        1.64
  YS02001610           JUNCTION     0.41     1.68     8.48     0  02:00        1.68
  YS02001613           JUNCTION     0.37     1.66     8.50     0  02:02        1.64
  YS02001616           JUNCTION     0.30     1.61     8.52     0  02:02        1.57
  YS02001619           JUNCTION     0.28     1.60     8.53     0  02:02        1.59
  YS02001622           JUNCTION     0.29     1.62     8.52     0  02:00        1.56
  YS02001625           JUNCTION     0.55     1.78     8.38     0  02:00        1.78
  YS02001629           JUNCTION     0.57     1.85     8.40     0  02:00        1.79
  YS02001633           JUNCTION     0.65     1.88     8.33     0  02:03        1.82
  YS02001641           JUNCTION     0.64     1.65     8.09     0  02:04        1.61
  YS02001644           JUNCTION     0.64     1.58     8.01     0  02:04        1.55
  YS02001647           JUNCTION     0.46     1.25     7.86     0  02:05        1.22
  YS02001649           JUNCTION     0.63     1.32     7.71     0  02:05        1.31
  YS02001652           JUNCTION     0.46     1.13     7.73     0  02:04        1.10
  YS02001655           JUNCTION     0.25     0.91     7.76     0  02:05        0.87
  YS02001658           JUNCTION     0.06     0.60     7.75     0  02:05        0.57
  YS02001661           JUNCTION     0.10     0.34     7.74     0  02:02        0.34
  YS02001664           JUNCTION     0.04     0.24     8.16     0  02:02        0.24
  YS02001745           JUNCTION     0.03     0.21     7.73     0  02:02        0.21
  YS02001748           JUNCTION     0.08     0.49     7.57     0  02:05        0.46
  YS02001751           JUNCTION     0.21     0.70     7.58     0  02:06        0.65
  YS02001754           JUNCTION     0.43     0.96     7.57     0  02:05        0.96
  YS02001757           JUNCTION     0.73     1.29     7.55     0  02:06        1.28
  YS02001759           JUNCTION     0.64     1.21     7.58     0  02:06        1.20
  YS02001762           JUNCTION     0.61     1.19     7.59     0  02:06        1.17
  YS02001765           JUNCTION     0.57     1.16     7.61     0  02:04        1.13
  YS02001767           JUNCTION     0.54     1.18     7.67     0  02:04        1.09
  YS02001770           JUNCTION     0.54     1.22     7.71     0  02:04        1.08
  YS02001774           JUNCTION     0.60     1.32     7.74     0  02:04        1.16
  YS02001779           JUNCTION     0.37     1.13     7.82     0  02:04        0.89
  YS02001783           JUNCTION     0.45     1.56     7.70     0  02:03        1.55
  YS02001784           JUNCTION     0.51     1.69     7.75     0  02:02        1.49
  YS02001786           JUNCTION     0.52     1.85     7.88     0  02:02        1.32
  YS02001788           JUNCTION     0.55     1.78     7.76     0  02:02        1.18
  YS02001790           JUNCTION     0.80     1.89     7.54     0  02:02        1.33
  YS02001791           JUNCTION     0.92     1.65     7.12     0  02:02        1.29
  YS02001793           JUNCTION     1.42     1.98     6.81     0  02:02        1.81
  YS02001882           JUNCTION     0.22     1.83     8.55     0  02:02        1.83
  YS02001884           JUNCTION     0.31     1.93     8.55     0  02:02        1.93
  YS02001887           JUNCTION     0.39     2.00     8.54     0  02:02        2.00
  YS02001890           JUNCTION     0.42     1.81     8.32     0  02:02        1.81
  YS02001895           JUNCTION     0.19     1.65     8.39     0  02:03        1.65
  YS02001898           JUNCTION     0.20     1.69     8.43     0  02:03        1.69
  YS02001901           JUNCTION     0.31     1.80     8.41     0  02:03        1.80
  YS02001904           JUNCTION     0.29     1.72     8.35     0  02:03        1.72
  YS02001907           JUNCTION     0.61     1.96     8.25     0  02:03        1.96
  YS02001910           JUNCTION     0.41     1.93     8.44     0  02:04        1.79
  YS02001915           JUNCTION     0.22     1.85     8.57     0  02:04        1.62
  YS02001918           JUNCTION     0.10     1.71     8.77     0  02:04        1.31
  YS02001920           JUNCTION     0.18     1.83     8.83     0  02:04        1.39
  YS02001923           JUNCTION     0.07     1.62     8.88     0  02:04        1.17
  YS02001926           JUNCTION     0.11     1.60     9.05     0  02:04        0.99
  YS02001929           JUNCTION     0.05     1.78     9.47     0  02:04        0.72
  YS02006553           JUNCTION     0.62     2.00     8.29     0  02:03        2.00
  YS02006556           JUNCTION     0.59     1.99     8.30     0  02:03        1.99
  YS02006558           JUNCTION     0.63     2.02     8.29     0  02:03        2.02
  YS02006561           JUNCTION     0.11     1.17     7.83     0  02:03        1.17
  YS02163301           JUNCTION     0.60     1.89     8.41     0  02:00        1.79
  YS02163601           JUNCTION     0.69     1.81     8.21     0  02:04        1.77
  YS02164001           JUNCTION     0.63     1.69     8.15     0  02:04        1.64
  CC-1                 OUTFALL      0.00     0.00     0.00     0  00:00        0.00
  CC-2                 OUTFALL      0.00     0.00     0.00     0  00:00        0.00
  JK-1                 OUTFALL      0.00     0.00     0.00     0  00:00        0.00
  JK-2                 OUTFALL      0.00     0.00     0.00     0  00:00        0.00
  WSC                  OUTFALL      0.29     0.37     1.04     0  02:29        0.37
  CC-storage           STORAGE      1.37     1.78     7.28     0  02:53        1.78
  JK-storage           STORAGE      4.74     5.80     6.60     0  02:02        5.80
  XR-storage           STORAGE      0.23     5.00     3.00     0  00:00        4.91
  
  
  *******************
  Node Inflow Summary
  *******************
  
  -------------------------------------------------------------------------------------------------
                                  Maximum  Maximum                  Lateral       Total        Flow
                                  Lateral    Total  Time of Max      Inflow      Inflow     Balance
                                   Inflow   Inflow   Occurrence      Volume      Volume       Error
  Node                 Type           LPS      LPS  days hr:min    10^6 ltr    10^6 ltr     Percent
  -------------------------------------------------------------------------------------------------
  WS02001211           JUNCTION      7.35   389.13     0  03:36       0.212        11.1       0.350
  WS02001212           JUNCTION      0.00   390.85     0  03:36           0        11.1       0.210
  WS02001213           JUNCTION      0.00   392.61     0  03:35           0        11.1       0.242
  WS02003059           JUNCTION      0.00   395.65     0  03:35           0          11       0.335
  WS02003060           JUNCTION     16.53   816.06     0  02:46       0.476        15.4       0.162
  WS02003066           JUNCTION      0.00   411.91     0  02:21           0        3.92       0.070
  WS02003067           JUNCTION      0.00   411.90     0  02:21           0        3.93       0.160
  WS02003069           JUNCTION      0.32   816.36     0  02:46     0.00922        15.4       0.173
  WS02003072           JUNCTION      0.00   816.35     0  02:47           0        15.3       0.216
  WS02003073           JUNCTION      1.82   818.17     0  02:48      0.0524        15.4       0.234
  WS02004138           JUNCTION      0.00   380.00     0  00:00           0        10.9       0.059
  WS02004139           JUNCTION      0.32   395.52     0  00:00     0.00924        10.9       0.409
  WS02004401           JUNCTION      0.00   412.07     0  02:17           0        4.09       0.412
  WS02004402           JUNCTION      0.00   411.97     0  02:18           0        4.08       0.389
  WS02004403           JUNCTION      0.00   411.98     0  02:18           0        4.06       0.360
  WS02004404           JUNCTION      0.16   412.13     0  02:18     0.00467        4.05       0.300
  WS02004405           JUNCTION      0.04   412.18     0  02:18      0.0011        4.04       0.392
  WS02004406           JUNCTION      0.00   412.20     0  02:18           0        4.03       0.678
  WS02004407           JUNCTION      0.00   412.06     0  02:19           0           4       0.104
  WS02004409           JUNCTION      0.00   412.01     0  02:19           0        3.99       0.216
  WS02004410           JUNCTION      0.00   411.98     0  02:19           0        3.99       0.261
  WS02004411           JUNCTION      0.00   411.99     0  02:20           0        3.97       0.284
  WS02004412           JUNCTION      0.00   411.96     0  02:20           0        3.96       0.328
  WS02004413           JUNCTION      0.00   411.97     0  02:20           0        3.95       0.527
  WS02006109           JUNCTION      1.23   411.73     0  02:10      0.0354        4.19       0.158
  WS02006110           JUNCTION      0.00   411.73     0  02:10           0        4.18       0.445
  WS02006111           JUNCTION      0.00   423.27     0  02:21           0        4.15       0.107
  WS02006112           JUNCTION      0.00   413.87     0  02:02           0        4.15       0.660
  WS02006113           JUNCTION      0.00   411.92     0  02:03           0        4.16       0.225
  WS02006115           JUNCTION      0.00   412.25     0  02:05           0        4.12       0.386
  WS02006116           JUNCTION      0.00   412.06     0  03:22           0        4.11       0.304
  WS02006228           JUNCTION      0.00   410.49     0  02:10           0        4.16       0.155
  WS02006229           JUNCTION      0.00   410.48     0  02:10           0        4.17       0.334
  WS02006230           JUNCTION     10.28   410.55     0  02:10       0.296        4.19       0.281
  WS02006231           JUNCTION      0.00   400.44     0  02:09           0         3.9       0.210
  WS02006232           JUNCTION      0.00   400.40     0  02:09           0        3.93       0.710
  WS02006234           JUNCTION      0.00   401.53     0  02:08           0        3.93       0.004
  WS02006235           JUNCTION      0.00   401.59     0  02:02           0        3.95       0.531
  WS02006238           JUNCTION      0.00   402.15     0  02:05           0        3.92      -0.596
  WS02006239           JUNCTION      0.00   400.82     0  01:56           0         3.9      -0.310
  WS02006240           JUNCTION      0.00   400.68     0  02:07           0         3.9       0.213
  WS02006242           JUNCTION      0.00   401.20     0  02:00           0        3.92       0.450
  WS02006243           JUNCTION      0.00   400.77     0  02:06           0        3.92       0.020
  WS02006245           JUNCTION      0.00   402.39     0  02:05           0        3.96       0.984
  WS02006247           JUNCTION      0.00   400.87     0  02:07           0        3.96       0.183
  WS02006248           JUNCTION      0.00   400.97     0  02:02           0        3.97       0.152
  WS02006249           JUNCTION      0.00   473.18     0  04:16           0        4.01       1.091
  WS02006251           JUNCTION      0.08   404.65     0  07:51     0.00222        4.02       0.146
  WS02006252           JUNCTION      0.00   400.00     0  00:00           0        4.01      -0.157
  WS02006256           JUNCTION      0.00   300.00     0  00:00           0      0.0243      -6.142
  WSF200               JUNCTION      0.00   411.90     0  02:21           0        3.92       0.055
  YS02001580           JUNCTION      0.00   156.26     0  02:00           0     0.00424      -3.259
  YS02001583           JUNCTION      0.00   277.47     0  02:00           0      0.0142     -13.402
  YS02001586           JUNCTION    329.68   329.80     0  02:04       0.768        0.78       0.202
  YS02001590           JUNCTION      0.00   317.92     0  02:06           0       0.762      -0.047
  YS02001593           JUNCTION      0.00   318.02     0  02:05           0       0.763       0.014
  YS02001596           JUNCTION      0.00   317.92     0  02:06           0       0.763       0.008
  YS02001600           JUNCTION      0.00   318.10     0  02:06           0       0.763      -0.028
  YS02001601           JUNCTION    604.03   921.00     0  02:03        1.06        1.83       0.053
  YS02001602           JUNCTION      0.00   565.86     0  02:00           0        1.52       0.031
  YS02001605           JUNCTION      0.00   565.51     0  02:00           0         1.5       0.037
  YS02001607           JUNCTION      0.00   564.96     0  02:00           0        1.51       0.143
  YS02001610           JUNCTION      0.00   537.63     0  02:00           0        1.51       0.167
  YS02001613           JUNCTION      0.00   536.11     0  02:00           0        1.49       0.127
  YS02001616           JUNCTION      0.00   533.24     0  02:00           0        1.49       0.032
  YS02001619           JUNCTION    568.09   961.65     0  02:00        1.18        2.66      -0.006
  YS02001622           JUNCTION      0.00   952.27     0  02:00           0        2.65       0.002
  YS02001625           JUNCTION      0.00   927.00     0  02:02           0        2.64       0.603
  YS02001629           JUNCTION      0.00   927.49     0  02:02           0        2.62      -0.037
  YS02001633           JUNCTION    461.55  1385.75     0  02:02       0.795        3.43       0.383
  YS02001641           JUNCTION      0.00  1386.00     0  02:02           0        3.43       0.274
  YS02001644           JUNCTION    396.82  1781.79     0  02:02        0.65        4.08       0.270
  YS02001647           JUNCTION      0.00  1782.70     0  02:02           0        4.07       0.171
  YS02001649           JUNCTION      0.00  2134.62     0  02:02           0        4.71       0.366
  YS02001652           JUNCTION      0.00   482.51     0  02:02           0       0.649       0.535
  YS02001655           JUNCTION      0.15   426.74     0  02:05     0.00443       0.635       0.260
  YS02001658           JUNCTION      0.00   398.90     0  02:02           0       0.624      -0.038
  YS02001661           JUNCTION      0.00   398.28     0  02:02           0       0.608       0.030
  YS02001664           JUNCTION    398.59   398.59     0  02:02       0.608       0.608      -0.005
  YS02001745           JUNCTION    253.66   253.66     0  02:02       0.357       0.357       0.438
  YS02001748           JUNCTION      0.04   253.28     0  02:02      0.0013       0.406      -0.492
  YS02001751           JUNCTION      0.01   303.10     0  02:06    0.000317       0.416       0.352
  YS02001754           JUNCTION      0.26   325.92     0  02:06     0.00749       0.426       0.850
  YS02001757           JUNCTION      0.00  2816.85     0  02:06           0        6.41       1.012
  YS02001759           JUNCTION    365.98   852.66     0  02:04       0.519        1.36       0.892
  YS02001762           JUNCTION      0.00   536.17     0  02:04           0       0.843       1.194
  YS02001765           JUNCTION      0.00   535.62     0  02:04           0        0.84       1.248
  YS02001767           JUNCTION      0.54   533.65     0  02:04      0.0154       0.836       1.606
  YS02001770           JUNCTION    500.59   526.61     0  02:04       0.773       0.877       1.253
  YS02001774           JUNCTION      0.00   145.39     0  02:02           0        0.13       8.769
  YS02001779           JUNCTION      0.01    99.79     0  02:03    0.000144      0.0457       6.318
  YS02001783           JUNCTION      0.00  1055.20     0  02:02           0        2.29       0.303
  YS02001784           JUNCTION      1.06  1056.34     0  02:02      0.0305        2.31       0.470
  YS02001786           JUNCTION      0.06  1056.01     0  02:02     0.00162         2.3       0.581
  YS02001788           JUNCTION      0.07  1016.41     0  02:02     0.00204        2.29       0.591
  YS02001790           JUNCTION      0.15   966.03     0  02:05     0.00446        2.28       0.757
  YS02001791           JUNCTION      0.00   966.26     0  02:05           0        2.27       0.634
  YS02001793           JUNCTION      0.00   966.62     0  02:05           0        2.25       0.705
  YS02001882           JUNCTION      0.00    45.01     0  02:01           0      0.0123       2.698
  YS02001884           JUNCTION      0.00   102.10     0  02:01           0      0.0486       4.826
  YS02001887           JUNCTION    398.21   425.45     0  02:01       0.549       0.583       0.725
  YS02001890           JUNCTION      0.00   438.40     0  02:02           0       0.542       0.903
  YS02001895           JUNCTION      0.00   452.21     0  02:02           0       0.536       0.239
  YS02001898           JUNCTION      0.00   462.18     0  02:02           0       0.535       0.010
  YS02001901           JUNCTION      0.00   468.92     0  02:02           0       0.538       0.562
  YS02001904           JUNCTION      0.00   473.26     0  02:02           0       0.542       0.465
  YS02001907           JUNCTION      0.00  1149.59     0  02:05           0        1.66       1.056
  YS02001910           JUNCTION      0.00   830.93     0  02:05           0        1.13       0.629
  YS02001915           JUNCTION    406.69   829.57     0  02:05       0.667        1.17       0.120
  YS02001918           JUNCTION      0.00   448.82     0  02:05           0       0.524      -0.100
  YS02001920           JUNCTION      2.87   448.00     0  02:05      0.0827       0.507       0.227
  YS02001923           JUNCTION      0.04   416.58     0  02:02     0.00109       0.409      -0.301
  YS02001926           JUNCTION      0.05   387.93     0  02:03      0.0015       0.389       0.213
  YS02001929           JUNCTION    205.22   317.88     0  02:03       0.375       0.377      -0.163
  YS02006553           JUNCTION      0.00   670.63     0  02:10           0        1.58       0.727
  YS02006556           JUNCTION      0.00   670.97     0  02:10           0        1.58       0.493
  YS02006558           JUNCTION    499.18  1086.77     0  02:02       0.757        2.32       0.140
  YS02006561           JUNCTION      0.00  1093.14     0  02:02           0        2.29      -0.005
  YS02163301           JUNCTION      0.00   928.90     0  02:02           0        2.63       0.317
  YS02163601           JUNCTION      0.11  1385.33     0  02:02     0.00317        3.43       0.414
  YS02164001           JUNCTION      0.00  1385.44     0  02:02           0        3.43       0.241
  CC-1                 OUTFALL       0.00   683.00     0  00:00           0       0.208       0.000
  CC-2                 OUTFALL       0.00   683.00     0  00:00           0       0.208       0.000
  JK-1                 OUTFALL       0.00  1000.00     0  00:00           0      0.0791       0.000
  JK-2                 OUTFALL       0.00  1000.00     0  00:00           0      0.0791       0.000
  WSC                  OUTFALL       0.00   818.16     0  02:29           0        15.3       0.000
  CC-storage           STORAGE       0.00  2817.96     0  02:06           0        8.42       0.187
  JK-storage           STORAGE       0.00   966.73     0  02:05           0        2.39       0.640
  XR-storage           STORAGE     200.00   200.00     0  00:00        5.76        6.36     -41.886
  
  
  **********************
  Node Surcharge Summary
  **********************
  
  Surcharging occurs when water rises above the top of the highest conduit.
  ---------------------------------------------------------------------
                                               Max. Height   Min. Depth
                                   Hours       Above Crown    Below Rim
  Node                 Type      Surcharged         Meters       Meters
  ---------------------------------------------------------------------
  WS02006109           JUNCTION        1.52          0.015        1.805
  WS02006228           JUNCTION        1.50          0.013        2.187
  WS02006229           JUNCTION        1.53          0.024        2.426
  WS02006232           JUNCTION        1.58          0.050        1.430
  WS02006235           JUNCTION        1.52          0.053        1.237
  WS02006238           JUNCTION        1.55          0.085        1.345
  WS02006239           JUNCTION        1.53          0.066        1.224
  WS02006240           JUNCTION        1.53          0.077        1.313
  WS02006242           JUNCTION        1.61          0.174        0.646
  WS02006243           JUNCTION        1.55          0.132        0.638
  WS02006245           JUNCTION        1.55          0.146        0.704
  WS02006247           JUNCTION        1.57          0.183        0.577
  WS02006248           JUNCTION        1.54          0.137        0.243
  WS02006249           JUNCTION        1.56          0.194        0.196
  WS02006252           JUNCTION        2.68          1.100        0.000
  WS02006256           JUNCTION        5.05          2.050        0.000
  YS02001580           JUNCTION        0.21          0.450        0.000
  YS02001583           JUNCTION        0.21          0.500        0.000
  YS02001586           JUNCTION        0.34          0.510        0.000
  YS02001590           JUNCTION        0.40          0.750        0.000
  YS02001593           JUNCTION        0.40          0.740        0.100
  YS02001596           JUNCTION        0.48          0.972        0.098
  YS02001600           JUNCTION        0.59          1.190        0.000
  YS02001601           JUNCTION        0.95          1.440        0.000
  YS02001602           JUNCTION        0.83          1.270        0.000
  YS02001605           JUNCTION        0.78          1.180        0.000
  YS02001607           JUNCTION        0.36          0.649        0.031
  YS02001610           JUNCTION        0.39          0.680        0.000
  YS02001613           JUNCTION        0.36          0.663        0.037
  YS02001616           JUNCTION        0.32          0.608        0.002
  YS02001619           JUNCTION        0.31          0.597        0.013
  YS02001622           JUNCTION        0.31          0.620        0.000
  YS02001625           JUNCTION        0.47          0.780        0.000
  YS02001629           JUNCTION        0.25          0.470        0.000
  YS02001633           JUNCTION        0.51          0.860        0.200
  YS02001641           JUNCTION        0.45          0.653        0.447
  YS02001644           JUNCTION        0.41          0.578        0.342
  YS02001647           JUNCTION        0.17          0.247        0.653
  YS02001649           JUNCTION        0.29          0.323        0.727
  YS02001652           JUNCTION        0.07          0.104        1.026
  YS02001757           JUNCTION        1.09          0.289        0.921
  YS02001759           JUNCTION        0.18          0.214        0.996
  YS02001762           JUNCTION        0.15          0.190        0.960
  YS02001765           JUNCTION        0.11          0.161        0.939
  YS02001767           JUNCTION        0.09          0.185        0.845
  YS02001770           JUNCTION        0.05          0.186        0.734
  YS02001774           JUNCTION        0.15          0.320        0.730
  YS02001779           JUNCTION        0.01          0.129        0.551
  YS02001783           JUNCTION        0.37          0.761        0.839
  YS02001784           JUNCTION        0.37          0.887        0.603
  YS02001786           JUNCTION        0.35          1.051        0.379
  YS02001788           JUNCTION        0.35          0.983        0.497
  YS02001790           JUNCTION        5.96          1.095        0.062
  YS02001791           JUNCTION        5.96          0.846        1.074
  YS02001793           JUNCTION        5.97          0.975        1.625
  YS02001882           JUNCTION        0.24          0.830        0.000
  YS02001884           JUNCTION        0.25          0.870        0.000
  YS02001887           JUNCTION        0.28          0.950        0.000
  YS02001890           JUNCTION        0.29          0.760        0.000
  YS02001895           JUNCTION        0.23          0.646        0.104
  YS02001898           JUNCTION        0.22          0.664        0.076
  YS02001901           JUNCTION        0.27          0.797        0.073
  YS02001904           JUNCTION        0.26          0.721        0.129
  YS02001907           JUNCTION        0.42          0.950        0.000
  YS02001910           JUNCTION        0.31          0.929        0.171
  YS02001915           JUNCTION        0.24          0.847        0.153
  YS02001918           JUNCTION        0.15          0.709        0.101
  YS02001920           JUNCTION        0.16          0.827        0.313
  YS02001923           JUNCTION        0.01          0.414        0.406
  YS02001926           JUNCTION        0.01          0.602        0.298
  YS02001929           JUNCTION        0.01          0.780        0.000
  YS02006553           JUNCTION        0.44          1.002        0.188
  YS02006556           JUNCTION        0.37          0.950        0.400
  YS02006558           JUNCTION        0.36          0.923        0.477
  YS02006561           JUNCTION        0.19          0.373        0.777
  YS02163301           JUNCTION        0.49          0.891        0.139
  YS02163601           JUNCTION        0.56          0.814        0.266
  YS02164001           JUNCTION        0.45          0.690        0.410
  
  
  *********************
  Node Flooding Summary
  *********************
  
  Flooding refers to all water that overflows a node, whether it ponds or not.
  --------------------------------------------------------------------------
                                                             Total   Maximum
                                 Maximum   Time of Max       Flood    Ponded
                        Hours       Rate    Occurrence      Volume     Depth
  Node                 Flooded       LPS   days hr:min    10^6 ltr    Meters
  --------------------------------------------------------------------------
  WS02006252              0.01    280.19      0  03:56       0.000     0.000
  WS02006256              0.02    293.19      0  00:00       0.005     0.000
  YS02001580              0.01     52.76      0  02:00       0.000     0.000
  YS02001583              0.01    165.46      0  02:00       0.000     0.000
  YS02001586              0.10    136.70      0  02:00       0.006     0.000
  YS02001590              0.01      5.62      0  02:00       0.000     0.000
  YS02001600              0.01      4.94      0  02:00       0.000     0.000
  YS02001601              0.28    523.07      0  02:03       0.312     0.000
  YS02001602              0.18     62.01      0  02:08       0.029     0.000
  YS02001605              0.01      3.69      0  02:00       0.000     0.000
  YS02001610              0.10     93.13      0  02:06       0.022     0.000
  YS02001622              0.01    169.61      0  02:00       0.000     0.000
  YS02001625              0.07    120.59      0  02:00       0.006     0.000
  YS02001629              0.01    238.26      0  02:00       0.001     0.000
  YS02001882              0.01     12.78      0  02:02       0.000     0.000
  YS02001884              0.01     13.44      0  02:02       0.000     0.000
  YS02001887              0.01      6.87      0  02:02       0.000     0.000
  YS02001890              0.01     57.77      0  02:03       0.001     0.000
  YS02001907              0.10    626.16      0  02:05       0.077     0.000
  YS02001929              0.01    156.29      0  02:04       0.000     0.000
  JK-storage              5.96    966.47      0  02:05       1.898     0.000
  
  
  **********************
  Storage Volume Summary
  **********************
  
  ------------------------------------------------------------------------------------------------
                         Average    Avg   Evap  Exfil     Maximum    Max    Time of Max    Maximum
                          Volume   Pcnt   Pcnt   Pcnt      Volume   Pcnt     Occurrence    Outflow
  Storage Unit           1000 m³   Full   Loss   Loss     1000 m³   Full    days hr:min        LPS
  ------------------------------------------------------------------------------------------------
  CC-storage               3.831   59.8    0.0    0.0       4.951   77.2       0  02:53    1783.53
  JK-storage               0.238   81.8    0.0    0.0       0.291  100.0       0  02:02    2300.00
  XR-storage               0.028    1.9    0.0    0.0       0.600   41.7       0  00:00     380.00
  
  
  ***********************
  Outfall Loading Summary
  ***********************
  
  -----------------------------------------------------------
                         Flow       Avg       Max       Total
                         Freq      Flow      Flow      Volume
  Outfall Node           Pcnt       LPS       LPS    10^6 ltr
  -----------------------------------------------------------
  CC-1                   1.01    683.00    683.00       0.208
  CC-2                   1.01    683.00    683.00       0.208
  JK-1                   0.94    347.46   1000.00       0.079
  JK-2                   0.94    347.46   1000.00       0.079
  WSC                   99.94    555.71    818.16      15.324
  -----------------------------------------------------------
  System                20.77   2616.64   3366.35      15.899
  
  
  ********************
  Link Flow Summary
  ********************
  
  -----------------------------------------------------------------------------
                                 Maximum  Time of Max   Maximum    Max/    Max/
                                  |Flow|   Occurrence   |Veloc|    Full    Full
  Link                 Type          LPS  days hr:min     m/sec    Flow   Depth
  -----------------------------------------------------------------------------
  1                    CONDUIT    818.16     0  02:29      3.15    0.28    0.37
  WS02001211WS02001212 CONDUIT    390.85     0  03:36      0.78    0.30    0.64
  WS02001212WS02001213 CONDUIT    392.61     0  03:35      1.32    0.61    0.45
  WS02001213WS02003059 CONDUIT    395.65     0  03:35      0.85    0.65    0.75
  WS02003059WS02003060 CONDUIT    399.95     0  03:35      0.95    0.26    0.63
  WS02003060WS02003069 CONDUIT    816.04     0  02:46      1.80    0.32    0.42
  WS02003066WSF200     CONDUIT    411.90     0  02:21      2.69    0.07    0.19
  WS02003067WS02003066 CONDUIT    411.91     0  02:21      1.04    0.13    0.38
  WS02003069WS02003072 CONDUIT    816.35     0  02:47      1.55    0.39    0.47
  WS02003072WS02003073 CONDUIT    816.34     0  02:48      1.64    1.76    0.45
  WS02004138WS02004139 CONDUIT    395.20     0  00:00      3.65    0.08    0.43
  WS02004139WS02001211 CONDUIT    381.78     0  03:36      0.91    0.48    0.59
  WS02004401WS02004402 CONDUIT    411.97     0  02:18      0.99    0.49    0.77
  WS02004402WS02004403 CONDUIT    411.98     0  02:18      0.99    0.59    0.79
  WS02004403WS02004404 CONDUIT    411.96     0  02:18      0.93    0.30    0.84
  WS02004404WS02004405 CONDUIT    412.14     0  02:18      1.10    4.04    0.88
  WS02004405WS02004406 CONDUIT    412.20     0  02:18      1.03    0.81    0.88
  WS02004406WS02004407 CONDUIT    412.06     0  02:19      0.89    0.18    0.57
  WS02004407WS02004409 CONDUIT    412.01     0  02:19      1.42    0.15    0.42
  WS02004409WS02004410 CONDUIT    411.98     0  02:19      0.92    0.53    0.58
  WS02004410WS02004411 CONDUIT    411.99     0  02:20      0.86    0.56    0.60
  WS02004411WS02004412 CONDUIT    411.96     0  02:20      0.81    0.59    0.61
  WS02004412WS02004413 CONDUIT    411.97     0  02:20      0.70    0.28    0.70
  WS02004413WS02003067 CONDUIT    411.90     0  02:21      0.96    0.18    0.54
  WS02006109WS02006110 CONDUIT    411.73     0  02:10      0.84    0.79    0.94
  WS02006110WS02006113 CONDUIT    411.92     0  02:03      1.03    0.37    0.75
  WS02006111WS02006112 CONDUIT    413.87     0  02:02      1.83    0.20    0.65
  WS02006112WS02006115 CONDUIT    412.25     0  02:05      0.71    0.24    0.78
  WS02006113WS02006111 CONDUIT    423.27     0  02:21      2.25    0.51    0.40
  WS02006115WS02006116 CONDUIT    412.06     0  03:22      0.98    0.53    0.66
  WS02006116WS02004401 CONDUIT    412.07     0  02:17      1.00    0.57    0.74
  WS02006228WS02006109 CONDUIT    410.50     0  02:10      1.06    1.79    1.00
  WS02006229WS02006228 CONDUIT    410.49     0  02:10      1.13    1.36    1.00
  WS02006230WS02006229 CONDUIT    410.48     0  02:10      1.22    9.14    1.00
  WS02006231WS02006230 CONDUIT    400.27     0  02:10      1.37    6.07    0.77
  WS02006232WS02006231 CONDUIT    400.44     0  02:09      1.08    0.84    0.92
  WS02006234WS02006232 CONDUIT    400.40     0  02:09      1.40    0.81    1.00
  WS02006235WS02006234 CONDUIT    401.53     0  02:08      1.29    4.24    0.99
  WS02006238WS02006235 CONDUIT    401.59     0  02:02      1.48    0.90    1.00
  WS02006239WS02006238 CONDUIT    402.15     0  02:05      1.20    1.29    1.00
  WS02006240WS02006239 CONDUIT    400.82     0  01:56      1.31    1.26    1.00
  WS02006242WS02006240 CONDUIT    400.68     0  02:07      1.18    1.59    1.00
  WS02006243WS02006242 CONDUIT    401.20     0  02:00      1.43    0.86    1.00
  WS02006245WS02006243 CONDUIT    400.77     0  02:06      1.45    1.19    1.00
  WS02006247WS02006245 CONDUIT    402.39     0  02:05      1.43    3.19    1.00
  WS02006248WS02006247 CONDUIT    400.87     0  02:07      1.47    0.87    1.00
  WS02006249WS02006248 CONDUIT    400.97     0  02:02      1.41    2.20    1.00
  WS02006251WS02006249 CONDUIT    473.18     0  04:16      1.99    1.36    1.00
  WS02006252WS02006251 CONDUIT    404.57     0  07:51     25.54    1.49    1.00
  WS02006256WS02006235 CONDUIT    288.91     0  00:00      4.23    3.06    1.00
  WSF200WS02003060     CONDUIT    411.91     0  02:21      1.43    0.09    0.30
  YS02001580YS02001583 CONDUIT    156.26     0  02:00      0.88    0.61    1.00
  YS02001583YS02001586 CONDUIT    194.44     0  02:00      0.86    0.29    1.00
  YS02001586YS02001590 CONDUIT    317.92     0  02:06      1.29    0.56    1.00
  YS02001590YS02001593 CONDUIT    318.02     0  02:05      1.12    2.00    1.00
  YS02001593YS02001596 CONDUIT    317.92     0  02:06      1.69    0.50    1.00
  YS02001596YS02001600 CONDUIT    318.10     0  02:06      1.13    0.62    1.00
  YS02001600YS02001601 CONDUIT    317.96     0  02:06      1.12    0.55    1.00
  YS02001601YS02001602 CONDUIT    565.86     0  02:00      2.00    2.04    1.00
  YS02001602YS02001605 CONDUIT    565.51     0  02:00      2.00   11.97    1.00
  YS02001605YS02001607 CONDUIT    564.96     0  02:00      2.00    3.10    1.00
  YS02001607YS02001610 CONDUIT    537.63     0  02:00      0.69    0.51    1.00
  YS02001610YS02001613 CONDUIT    536.11     0  02:00      0.68    0.62    1.00
  YS02001613YS02001616 CONDUIT    533.24     0  02:00      0.68    0.46    1.00
  YS02001616YS02001619 CONDUIT    497.75     0  02:00      0.66    0.86    1.00
  YS02001619YS02001622 CONDUIT    952.27     0  02:00      1.25    1.40    1.00
  YS02001622YS02001625 CONDUIT    927.00     0  02:02      1.18    0.49    1.00
  YS02001625YS02001629 CONDUIT    927.49     0  02:02      1.18    0.44    1.00
  YS02001629YS02163301 CONDUIT    928.90     0  02:02      1.18    1.14    1.00
  YS02001633YS02163601 CONDUIT   1385.22     0  02:02      1.76    1.45    1.00
  YS02001641YS02001644 CONDUIT   1387.02     0  02:02      1.77    4.48    1.00
  YS02001644YS02001647 CONDUIT   1782.70     0  02:02      2.33    1.05    1.00
  YS02001647YS02001649 CONDUIT   1784.52     0  02:02      2.40    0.94    1.00
  YS02001649YS02001757 CONDUIT   2134.27     0  02:02      2.73    1.30    1.00
  YS02001652YS02001649 CONDUIT    455.68     0  02:02      0.76    0.23    1.00
  YS02001655YS02001652 CONDUIT    482.51     0  02:02      1.41    0.23    0.95
  YS02001658YS02001655 CONDUIT    426.59     0  02:05      2.03    0.18    0.74
  YS02001661YS02001658 CONDUIT    398.90     0  02:02      2.30    0.16    0.43
  YS02001664YS02001661 CONDUIT    398.28     0  02:02      2.12    0.12    0.29
  YS02001745YS02001748 CONDUIT    253.24     0  02:02      2.10    0.10    0.30
  YS02001748YS02001751 CONDUIT    303.09     0  02:06      1.77    0.15    0.58
  YS02001751YS02001754 CONDUIT    325.66     0  02:06      1.53    0.16    0.78
  YS02001754YS02001757 CONDUIT    273.64     0  02:06      0.50    0.11    0.98
  YS02001757CaochengTiaoxuchi CONDUIT   2817.96     0  02:06      3.61    1.22    1.00
  YS02001759YS02001757 CONDUIT    853.65     0  02:04      1.09    0.61    1.00
  YS02001762YS02001759 CONDUIT    536.61     0  02:04      0.68    0.62    1.00
  YS02001765YS02001762 CONDUIT    536.17     0  02:04      0.72    0.50    1.00
  YS02001767YS02001765 CONDUIT    535.62     0  02:04      0.81    0.67    1.00
  YS02001770YS02001767 CONDUIT    533.12     0  02:04      0.83    2.11    1.00
  YS02001774YS02001770 CONDUIT    145.39     0  02:02      0.23    0.09    1.00
  YS02001779YS02001774 CONDUIT     99.78     0  02:03      0.13    0.05    1.00
  YS02001783YS02001784 CONDUIT   1055.28     0  02:02      2.10    1.45    1.00
  YS02001784YS02001785 CONDUIT   1055.96     0  02:02      2.12    2.46    1.00
  YS02001786YS02001788 CONDUIT   1016.33     0  02:02      2.29    1.96    1.00
  YS02001788YS02001790 CONDUIT    965.88     0  02:05      2.41    0.71    1.00
  YS02001790YS02001791 CONDUIT    966.26     0  02:05      2.90    1.05    1.00
  YS02001791YS02001793 CONDUIT    966.62     0  02:05      5.63    0.42    1.00
  YS02001793JiankangQianchi CONDUIT    966.73     0  02:05      1.54    0.08    1.00
  YS02001882YS02001884 CONDUIT     45.01     0  02:01      0.09    0.05    1.00
  YS02001884YS02001887 CONDUIT    102.10     0  02:01      0.13    0.14    1.00
  YS02001887YS02001890 CONDUIT    438.40     0  02:02      0.56    0.75    1.00
  YS02001890YS02001895 CONDUIT    452.21     0  02:02      0.58    0.21    1.00
  YS02001895YS02001898 CONDUIT    462.18     0  02:02      0.59    0.80    1.00
  YS02001898YS02001901 CONDUIT    468.92     0  02:02      0.60    0.30    1.00
  YS02001901YS02001904 CONDUIT    473.26     0  02:02      0.60    0.73    1.00
  YS02001904YS02001907 CONDUIT    478.62     0  02:02      0.61    0.17    1.00
  YS02001907YS02006553 CONDUIT    670.63     0  02:10      0.75    0.79    1.00
  YS02001910YS02001907 CONDUIT    831.04     0  02:05      1.06    0.47    1.00
  YS02001915YS02001910 CONDUIT    830.93     0  02:05      1.06    0.41    1.00
  YS02001918YS02001915 CONDUIT    451.46     0  02:05      0.57    0.25    1.00
  YS02001920YS02001918 CONDUIT    448.82     0  02:05      0.65    0.43    1.00
  YS02001923YS02001920 CONDUIT    445.13     0  02:05      0.76    0.20    1.00
  YS02001926YS02001923 CONDUIT    387.27     0  02:04      0.98    0.55    1.00
  YS02001929YS02001926 CONDUIT    381.50     0  02:04      1.11    0.18    1.00
  YS02006553YS02006556 CONDUIT    670.97     0  02:10      0.85    0.57    1.00
  YS02006556YS02006558 CONDUIT    672.47     0  02:10      0.86    0.53    1.00
  YS02006558YS02006561 CONDUIT   1093.14     0  02:02      3.88    2.42    1.00
  YS02006561YS02001783 CONDUIT   1055.20     0  02:02      2.29    0.55    1.00
  YS02163301YS02001633 CONDUIT    929.47     0  02:02      1.18    0.87    1.00
  YS02163601YS02164001 CONDUIT   1385.44     0  02:02      1.76    1.23    1.00
  YS02164001YS02001641 CONDUIT   1386.00     0  02:02      1.76    1.89    1.00
  CC-R1                PUMP       683.00     0  00:00              1.00
  CC-R2                PUMP       683.00     0  00:00              1.00
  CC-S1                PUMP       200.00     0  00:00              1.00
  CC-S2                PUMP       200.00     0  00:00              1.00
  JK-R1                PUMP      1000.00     0  00:00              1.00
  JK-R2                PUMP      1000.00     0  00:00              1.00
  JK-S                 PUMP       300.00     0  00:00              1.00
  XR-1                 PUMP        95.00     0  00:00              1.00
  XR-2                 PUMP        95.00     0  00:00              1.00
  XR-3                 PUMP        95.00     0  00:00              1.00
  XR-4                 PUMP        95.00     0  00:00              1.00
  
  
  ***************************
  Flow Classification Summary
  ***************************
  
  -------------------------------------------------------------------------------------
                      Adjusted    ---------- Fraction of Time in Flow Class ---------- 
                       /Actual         Up    Down  Sub   Sup   Up    Down  Norm  Inlet 
  Conduit               Length    Dry  Dry   Dry   Crit  Crit  Crit  Crit  Ltd   Ctrl  
  -------------------------------------------------------------------------------------
  1                       1.00   0.00  0.00  0.00  0.00  1.00  0.00  0.00  0.32  0.00
  WS02001211WS02001212    1.00   0.00  0.00  0.00  1.00  0.00  0.00  0.00  0.00  0.00
  WS02001212WS02001213    1.00   0.00  0.00  0.00  0.58  0.00  0.42  0.00  0.00  0.00
  WS02001213WS02003059    1.00   0.00  0.00  0.00  0.99  0.00  0.00  0.00  0.00  0.00
  WS02003059WS02003060    1.00   0.00  0.00  0.00  1.00  0.00  0.00  0.00  0.00  0.00
  WS02003060WS02003069    1.00   0.00  0.00  0.00  0.99  0.01  0.00  0.00  0.00  0.00
  WS02003066WSF200        1.00   0.02  0.10  0.00  0.00  0.88  0.00  0.00  0.85  0.00
  WS02003067WS02003066    1.00   0.10  0.02  0.00  0.89  0.00  0.00  0.00  0.00  0.00
  WS02003069WS02003072    1.00   0.00  0.00  0.00  0.99  0.01  0.00  0.00  0.00  0.00
  WS02003072WS02003073    1.00   0.00  0.00  0.00  0.00  0.00  0.00  1.00  0.00  0.00
  WS02004138WS02004139    1.00   0.00  0.00  0.00  0.99  0.01  0.00  0.00  1.00  0.00
  WS02004139WS02001211    1.00   0.00  0.00  0.00  1.00  0.00  0.00  0.00  0.00  0.00
  WS02004401WS02004402    1.00   0.02  0.00  0.00  0.98  0.00  0.00  0.00  0.00  0.00
  WS02004402WS02004403    1.00   0.02  0.00  0.00  0.98  0.00  0.00  0.00  0.00  0.00
  WS02004403WS02004404    1.00   0.00  0.03  0.00  0.97  0.00  0.00  0.00  0.00  0.00
  WS02004404WS02004405    1.00   0.00  0.00  0.00  1.00  0.00  0.00  0.00  0.01  0.00
  WS02004405WS02004406    1.00   0.00  0.00  0.00  1.00  0.00  0.00  0.00  0.00  0.00
  WS02004406WS02004407    1.00   0.00  0.05  0.00  0.95  0.00  0.00  0.00  0.00  0.00
  WS02004407WS02004409    1.00   0.05  0.00  0.00  0.94  0.01  0.00  0.00  0.94  0.00
  WS02004409WS02004410    1.00   0.05  0.00  0.00  0.95  0.00  0.00  0.00  0.02  0.00
  WS02004410WS02004411    1.00   0.05  0.00  0.00  0.95  0.00  0.00  0.00  0.00  0.00
  WS02004411WS02004412    1.00   0.05  0.00  0.00  0.95  0.00  0.00  0.00  0.00  0.00
  WS02004412WS02004413    1.00   0.05  0.00  0.00  0.94  0.00  0.00  0.00  0.01  0.00
  WS02004413WS02003067    1.00   0.06  0.04  0.00  0.00  0.00  0.90  0.00  0.00  0.00
  WS02006109WS02006110    1.00   0.00  0.01  0.00  0.98  0.00  0.01  0.00  0.00  0.00
  WS02006110WS02006113    1.00   0.01  0.01  0.00  0.98  0.00  0.00  0.00  0.00  0.00
  WS02006111WS02006112    1.00   0.02  0.00  0.00  0.98  0.00  0.00  0.00  0.98  0.00
  WS02006112WS02006115    1.00   0.02  0.00  0.00  0.97  0.00  0.00  0.00  0.00  0.00
  WS02006113WS02006111    1.00   0.02  0.00  0.00  0.00  0.98  0.00  0.00  0.21  0.00
  WS02006115WS02006116    1.00   0.02  0.00  0.00  0.97  0.00  0.00  0.01  0.00  0.00
  WS02006116WS02004401    1.00   0.02  0.00  0.00  0.98  0.00  0.00  0.00  0.00  0.00
  WS02006228WS02006109    1.00   0.00  0.00  0.00  1.00  0.00  0.00  0.00  0.01  0.00
  WS02006229WS02006228    1.00   0.00  0.00  0.00  0.99  0.00  0.00  0.01  0.01  0.00
  WS02006230WS02006229    1.00   0.00  0.00  0.00  0.99  0.00  0.00  0.01  0.00  0.00
  WS02006231WS02006230    1.00   0.00  0.00  0.00  0.21  0.00  0.79  0.00  0.00  0.00
  WS02006232WS02006231    1.00   0.00  0.00  0.00  0.98  0.00  0.01  0.00  0.00  0.00
  WS02006234WS02006232    1.00   0.00  0.00  0.00  1.00  0.00  0.00  0.00  0.27  0.00
  WS02006235WS02006234    1.00   0.00  0.00  0.00  0.68  0.00  0.32  0.00  0.00  0.00
  WS02006238WS02006235    1.00   0.00  0.00  0.00  1.00  0.00  0.00  0.00  0.00  0.00
  WS02006239WS02006238    1.00   0.00  0.00  0.00  1.00  0.00  0.00  0.00  0.37  0.00
  WS02006240WS02006239    1.00   0.00  0.00  0.00  0.58  0.00  0.00  0.42  0.02  0.00
  WS02006242WS02006240    1.00   0.00  0.00  0.00  0.98  0.00  0.02  0.00  0.00  0.00
  WS02006243WS02006242    1.00   0.00  0.00  0.00  0.98  0.00  0.00  0.02  0.51  0.00
  WS02006245WS02006243    1.00   0.00  0.00  0.00  0.64  0.00  0.00  0.36  0.01  0.00
  WS02006247WS02006245    1.00   0.00  0.00  0.00  0.97  0.00  0.00  0.03  0.00  0.00
  WS02006248WS02006247    1.00   0.00  0.00  0.00  0.98  0.00  0.00  0.02  0.21  0.00
  WS02006249WS02006248    1.00   0.00  0.00  0.00  0.47  0.00  0.53  0.00  0.00  0.00
  WS02006251WS02006249    1.00   0.00  0.00  0.00  0.99  0.01  0.00  0.00  0.53  0.00
  WS02006252WS02006251    1.00   0.00  0.57  0.00  0.00  0.00  0.43  0.00  0.00  0.00
  WS02006256WS02006235    1.00   0.00  0.00  0.00  1.00  0.00  0.00  0.00  0.00  0.00
  WSF200WS02003060        1.00   0.00  0.02  0.00  0.98  0.00  0.00  0.00  0.70  0.00
  YS02001580YS02001583    1.00   0.25  0.61  0.00  0.14  0.00  0.00  0.00  0.70  0.00
  YS02001583YS02001586    1.00   0.51  0.29  0.00  0.19  0.00  0.00  0.00  0.70  0.00
  YS02001586YS02001590    1.00   0.13  0.00  0.00  0.35  0.04  0.00  0.48  0.33  0.00
  YS02001590YS02001593    1.00   0.13  0.01  0.00  0.06  0.00  0.80  0.00  0.00  0.00
  YS02001593YS02001596    1.00   0.14  0.00  0.00  0.07  0.01  0.00  0.78  0.02  0.00
  YS02001596YS02001600    1.00   0.14  0.00  0.00  0.16  0.02  0.00  0.69  0.08  0.00
  YS02001600YS02001601    1.00   0.13  0.01  0.00  0.86  0.00  0.00  0.00  0.54  0.00
  YS02001601YS02001602    1.00   0.13  0.01  0.00  0.86  0.00  0.00  0.00  0.00  0.00
  YS02001602YS02001605    1.00   0.14  0.00  0.00  0.86  0.00  0.00  0.00  0.00  0.00
  YS02001605YS02001607    1.00   0.14  0.00  0.00  0.86  0.00  0.00  0.00  0.00  0.00
  YS02001607YS02001610    1.00   0.13  0.01  0.00  0.86  0.00  0.00  0.00  0.02  0.00
  YS02001610YS02001613    1.00   0.13  0.00  0.00  0.87  0.00  0.00  0.00  0.01  0.00
  YS02001613YS02001616    1.00   0.13  0.00  0.00  0.87  0.00  0.00  0.00  0.01  0.00
  YS02001616YS02001619    1.00   0.13  0.00  0.00  0.87  0.00  0.00  0.00  0.00  0.00
  YS02001619YS02001622    1.00   0.13  0.00  0.00  0.87  0.00  0.00  0.00  0.01  0.00
  YS02001622YS02001625    1.00   0.13  0.00  0.00  0.87  0.00  0.00  0.00  0.06  0.00
  YS02001625YS02001629    1.00   0.13  0.06  0.00  0.70  0.00  0.11  0.00  0.00  0.00
  YS02001629YS02163301    1.00   0.17  0.01  0.00  0.82  0.00  0.00  0.00  0.00  0.00
  YS02001633YS02163601    1.00   0.00  0.01  0.00  0.99  0.00  0.00  0.00  0.16  0.00
  YS02001641YS02001644    1.00   0.00  0.01  0.00  0.99  0.00  0.00  0.00  0.00  0.00
  YS02001644YS02001647    1.00   0.00  0.19  0.00  0.81  0.00  0.00  0.00  0.00  0.00
  YS02001647YS02001649    1.00   0.00  0.19  0.00  0.80  0.01  0.00  0.00  0.02  0.00
  YS02001649YS02001757    1.00   0.00  0.00  0.00  0.98  0.02  0.00  0.00  0.20  0.00
  YS02001652YS02001649    1.00   0.00  0.00  0.00  0.95  0.05  0.00  0.00  0.19  0.00
  YS02001655YS02001652    1.00   0.00  0.00  0.00  0.76  0.00  0.00  0.24  0.00  0.00
  YS02001658YS02001655    1.00   0.00  0.15  0.00  0.75  0.10  0.00  0.00  0.54  0.00
  YS02001661YS02001658    1.00   0.15  0.00  0.00  0.70  0.15  0.00  0.00  0.76  0.00
  YS02001664YS02001661    1.00   0.13  0.00  0.00  0.78  0.10  0.00  0.00  0.87  0.00
  YS02001745YS02001748    1.00   0.00  0.00  0.00  0.22  0.04  0.00  0.74  0.26  0.00
  YS02001748YS02001751    1.00   0.00  0.00  0.00  0.91  0.09  0.00  0.00  0.58  0.00
  YS02001751YS02001754    1.00   0.00  0.00  0.00  0.75  0.00  0.00  0.25  0.00  0.00
  YS02001754YS02001757    1.00   0.00  0.00  0.00  1.00  0.00  0.00  0.00  0.24  0.00
  YS02001757CaochengTiaoxuchi    1.00   0.00  0.00  0.00  0.98  0.02  0.00  0.00  0.23  0.00
  YS02001759YS02001757    1.00   0.00  0.00  0.00  1.00  0.00  0.00  0.00  0.06  0.00
  YS02001762YS02001759    1.00   0.00  0.00  0.00  1.00  0.00  0.00  0.00  0.05  0.00
  YS02001765YS02001762    1.00   0.00  0.00  0.00  1.00  0.00  0.00  0.00  0.18  0.00
  YS02001767YS02001765    1.00   0.00  0.00  0.00  1.00  0.00  0.00  0.00  0.00  0.00
  YS02001770YS02001767    1.00   0.00  0.00  0.00  1.00  0.00  0.00  0.00  0.00  0.00
  YS02001774YS02001770    1.00   0.00  0.14  0.00  0.86  0.00  0.00  0.00  0.04  0.00
  YS02001779YS02001774    1.00   0.00  0.00  0.00  1.00  0.00  0.00  0.00  0.20  0.00
  YS02001783YS02001784    1.00   0.00  0.20  0.00  0.80  0.00  0.00  0.00  0.00  0.00
  YS02001784YS02001785    1.00   0.00  0.00  0.00  1.00  0.00  0.00  0.00  0.19  0.00
  YS02001786YS02001788    1.00   0.00  0.00  0.00  0.96  0.04  0.00  0.00  0.00  0.00
  YS02001788YS02001790    1.00   0.00  0.00  0.00  0.95  0.05  0.00  0.00  0.21  0.00
  YS02001790YS02001791    1.00   0.00  0.00  0.00  0.76  0.24  0.00  0.00  0.03  0.00
  YS02001791YS02001793    1.00   0.00  0.00  0.00  0.75  0.25  0.00  0.00  0.00  0.00
  YS02001793JiankangQianchi    1.00   0.00  0.00  0.00  0.94  0.06  0.00  0.00  0.22  0.00
  YS02001882YS02001884    1.00   0.16  0.01  0.00  0.82  0.00  0.00  0.00  0.00  0.00
  YS02001884YS02001887    1.00   0.06  0.05  0.00  0.89  0.00  0.00  0.00  0.00  0.00
  YS02001887YS02001890    1.00   0.00  0.00  0.00  0.97  0.00  0.03  0.00  0.00  0.00
  YS02001890YS02001895    1.00   0.00  0.18  0.00  0.82  0.00  0.00  0.00  0.00  0.00
  YS02001895YS02001898    1.00   0.18  0.00  0.00  0.80  0.00  0.02  0.00  0.00  0.00
  YS02001898YS02001901    1.00   0.18  0.01  0.00  0.81  0.00  0.00  0.00  0.01  0.00
  YS02001901YS02001904    1.00   0.18  0.00  0.00  0.82  0.00  0.00  0.00  0.00  0.00
  YS02001904YS02001907    1.00   0.00  0.18  0.00  0.82  0.00  0.00  0.00  0.00  0.00
  YS02001907YS02006553    1.00   0.00  0.02  0.00  0.98  0.00  0.00  0.00  0.00  0.00
  YS02001910YS02001907    1.00   0.00  0.00  0.00  0.97  0.00  0.00  0.03  0.12  0.00
  YS02001915YS02001910    1.00   0.00  0.00  0.00  0.96  0.04  0.00  0.00  0.18  0.00
  YS02001918YS02001915    1.00   0.00  0.01  0.00  0.98  0.02  0.00  0.00  0.80  0.00
  YS02001920YS02001918    1.00   0.00  0.01  0.00  0.99  0.00  0.00  0.00  0.00  0.00
  YS02001923YS02001920    1.00   0.00  0.00  0.00  1.00  0.00  0.00  0.00  0.96  0.00
  YS02001926YS02001923    1.00   0.00  0.07  0.00  0.03  0.00  0.90  0.00  0.00  0.00
  YS02001929YS02001926    1.00   0.00  0.13  0.00  0.87  0.00  0.00  0.00  0.85  0.00
  YS02006553YS02006556    1.00   0.01  0.00  0.00  0.99  0.00  0.00  0.00  0.03  0.00
  YS02006556YS02006558    1.00   0.00  0.00  0.00  1.00  0.00  0.00  0.00  0.00  0.00
  YS02006558YS02006561    1.00   0.20  0.00  0.00  0.04  0.76  0.00  0.00  0.18  0.00
  YS02006561YS02001783    1.00   0.20  0.00  0.00  0.75  0.05  0.00  0.00  0.73  0.00
  YS02163301YS02001633    1.00   0.00  0.17  0.00  0.83  0.00  0.00  0.00  0.00  0.00
  YS02163601YS02164001    1.00   0.00  0.08  0.00  0.92  0.00  0.00  0.00  0.00  0.00
  YS02164001YS02001641    1.00   0.01  0.07  0.00  0.92  0.00  0.00  0.00  0.06  0.00
  
  
  *************************
  Conduit Surcharge Summary
  *************************
  
  ----------------------------------------------------------------------------
                                                           Hours        Hours 
                         --------- Hours Full --------   Above Full   Capacity
  Conduit                Both Ends  Upstream  Dnstream   Normal Flow   Limited
  ----------------------------------------------------------------------------
  WS02003072WS02003073        0.01      0.01      0.01      3.90         0.01
  WS02004404WS02004405        0.01      0.01      0.01      3.46         0.01
  WS02006109WS02006110        0.01      0.01      1.57      0.01         0.01
  WS02006110WS02006113        0.01      0.01      1.55      0.01         0.01
  WS02006111WS02006112        0.01      0.01      1.67      0.01         0.01
  WS02006228WS02006109        1.52      1.57      1.52      2.38         1.52
  WS02006229WS02006228        1.50      1.53      1.50      1.91         1.50
  WS02006230WS02006229        1.65      1.71      1.65      4.02         1.65
  WS02006231WS02006230        0.01      0.01      0.01      3.68         0.01
  WS02006232WS02006231        0.01      0.01      1.58      0.01         0.01
  WS02006234WS02006232        1.48      1.48      1.58      0.01         0.01
  WS02006235WS02006234        0.01      0.01      1.52      3.39         0.01
  WS02006238WS02006235        1.53      1.53      1.59      0.01         0.01
  WS02006239WS02006238        1.55      1.58      1.55      2.05         1.55
  WS02006240WS02006239        1.53      1.54      1.53      2.09         1.53
  WS02006242WS02006240        1.53      1.53      1.66      2.43         0.01
  WS02006243WS02006242        1.56      1.56      1.61      0.01         0.01
  WS02006245WS02006243        1.55      1.56      1.55      2.31         1.55
  WS02006247WS02006245        1.55      1.58      1.55      2.87         1.55
  WS02006248WS02006247        1.55      1.55      1.57      0.01         0.01
  WS02006249WS02006248        1.54      1.54      1.56      2.81         0.01
  WS02006251WS02006249        1.56      1.57      1.56      2.56         1.56
  WS02006252WS02006251        2.67      2.67      2.68      2.68         0.01
  WS02006256WS02006235        3.58      3.58      5.04      0.02         0.01
  YS02001580YS02001583        0.21      0.21      0.25      0.01         0.01
  YS02001583YS02001586        0.21      0.21      0.34      0.01         0.01
  YS02001586YS02001590        0.34      0.34      0.40      0.01         0.01
  YS02001590YS02001593        0.40      0.40      0.41      0.42         0.01
  YS02001593YS02001596        0.41      0.41      0.48      0.01         0.01
  YS02001596YS02001600        0.51      0.51      0.59      0.01         0.01
  YS02001600YS02001601        0.64      0.64      0.95      0.01         0.01
  YS02001601YS02001602        0.83      0.83      1.00      0.58         0.01
  YS02001602YS02001605        0.78      0.78      0.83      1.72         0.01
  YS02001605YS02001607        0.75      0.78      0.76      0.82         0.75
  YS02001607YS02001610        0.36      0.36      0.39      0.01         0.01
  YS02001610YS02001613        0.36      0.36      0.39      0.01         0.01
  YS02001613YS02001616        0.32      0.32      0.36      0.01         0.01
  YS02001616YS02001619        0.31      0.31      0.32      0.01         0.01
  YS02001619YS02001622        0.31      0.31      0.31      0.41         0.30
  YS02001622YS02001625        0.31      0.31      0.47      0.01         0.01
  YS02001625YS02001629        0.25      0.25      0.47      0.01         0.01
  YS02001629YS02163301        0.46      0.46      0.49      0.23         0.21
  YS02001633YS02163601        0.51      0.51      0.56      0.33         0.33
  YS02001641YS02001644        0.41      0.45      0.41      0.93         0.41
  YS02001644YS02001647        0.17      0.17      0.41      0.04         0.01
  YS02001647YS02001649        0.17      0.17      0.29      0.01         0.01
  YS02001649YS02001757        0.27      0.29      1.09      0.17         0.13
  YS02001652YS02001649        0.10      0.10      0.29      0.01         0.01
  YS02001655YS02001652        0.01      0.01      0.07      0.01         0.01
  YS02001754YS02001757        0.01      0.01      1.09      0.01         0.01
  YS02001757CaochengTiaoxuchi        1.02      1.09      5.89      0.16         0.06
  YS02001759YS02001757        0.18      0.18      1.09      0.01         0.01
  YS02001762YS02001759        0.15      0.15      0.18      0.01         0.01
  YS02001765YS02001762        0.11      0.11      0.15      0.01         0.01
  YS02001767YS02001765        0.09      0.09      0.11      0.01         0.01
  YS02001770YS02001767        0.09      0.10      0.09      0.26         0.06
  YS02001774YS02001770        0.05      0.05      0.15      0.01         0.01
  YS02001779YS02001774        0.01      0.01      0.15      0.01         0.01
  YS02001783YS02001784        0.36      0.37      0.37      0.34         0.29
  YS02001784YS02001785        0.35      0.37      0.35      0.51         0.35
  YS02001786YS02001788        0.35      0.35      0.35      0.44         0.35
  YS02001788YS02001790        0.35      0.35      5.96      0.01         0.01
  YS02001790YS02001791        5.96      5.96      5.96      0.14         0.13
  YS02001791YS02001793        5.96      5.96      5.98      0.01         0.01
  YS02001793JiankangQianchi        5.97      5.97      6.15      0.01         0.01
  YS02001882YS02001884        0.24      0.24      0.25      0.01         0.01
  YS02001884YS02001887        0.27      0.27      0.28      0.01         0.01
  YS02001887YS02001890        0.29      0.29      0.30      0.01         0.01
  YS02001890YS02001895        0.23      0.23      0.31      0.01         0.01
  YS02001895YS02001898        0.22      0.22      0.23      0.01         0.01
  YS02001898YS02001901        0.24      0.24      0.27      0.01         0.01
  YS02001901YS02001904        0.26      0.26      0.27      0.01         0.01
  YS02001904YS02001907        0.26      0.26      0.43      0.01         0.01
  YS02001907YS02006553        0.51      0.51      0.55      0.01         0.01
  YS02001910YS02001907        0.31      0.31      0.42      0.01         0.01
  YS02001915YS02001910        0.24      0.24      0.31      0.01         0.01
  YS02001918YS02001915        0.15      0.15      0.24      0.01         0.01
  YS02001920YS02001918        0.15      0.15      0.16      0.01         0.01
  YS02001923YS02001920        0.06      0.06      0.16      0.01         0.01
  YS02001926YS02001923        0.01      0.01      0.01      0.01         0.01
  YS02001929YS02001926        0.01      0.01      0.01      0.01         0.01
  YS02006553YS02006556        0.37      0.37      0.44      0.01         0.01
  YS02006556YS02006558        0.40      0.40      0.45      0.01         0.01
  YS02006558YS02006561        0.25      0.36      0.25      0.48         0.25
  YS02006561YS02001783        0.19      0.19      0.37      0.01         0.01
  YS02163301YS02001633        0.49      0.49      0.52      0.01         0.01
  YS02163601YS02164001        0.45      0.45      0.56      0.19         0.01
  YS02164001YS02001641        0.45      0.45      0.45      0.48         0.44
  
  
  ***************
  Pumping Summary
  ***************
  
  ---------------------------------------------------------------------------------------------------------
                                                  Min       Avg       Max     Total     Power    % Time Off
                        Percent   Number of      Flow      Flow      Flow    Volume     Usage    Pump Curve
  Pump                 Utilized   Start-Ups       LPS       LPS       LPS  10^6 ltr     Kw-hr    Low   High
  ---------------------------------------------------------------------------------------------------------
  CC-R1                    1.06           1      0.00    683.00    683.00     0.208      3.51    0.0  100.0
  CC-R2                    1.06           1      0.00    683.00    683.00     0.208      3.51    0.0  100.0
  CC-S1                   36.21          12      0.00    200.00    200.00     2.086     10.81    0.0    0.0
  CC-S2                   33.45          12      0.00    200.00    200.00     1.926     10.12    0.0    0.0
  JK-R1                    0.97           2      0.00    347.46   1000.00     0.078      0.47    0.0    0.0
  JK-R2                    0.97           2      0.00    347.46   1000.00     0.078      0.47    0.0    0.0
  JK-S                     0.97           2      0.00    104.30    300.00     0.023      0.44    0.0    0.0
  XR-1                   100.00           1      0.00     95.00     95.00     2.736     68.18    0.0    0.0
  XR-2                   100.00           1      0.00     95.00     95.00     2.736     68.18    0.0    0.0
  XR-3                   100.00           1      0.00     95.00     95.00     2.736     68.18    0.0    0.0
  XR-4                   100.00           1      0.00     95.00     95.00     2.736     68.18    0.0    0.0
  

  Analysis begun on:  Wed Nov  5 16:28:42 2025
  Analysis ended on:  Wed Nov  5 16:28:45 2025
  Total elapsed time: 00:00:03