
  EPA STORM WATER MANAGEMENT MODEL - VERSION 5.2 (Build 5.2.4)
  PYSWMM TOOLKIT API - VERSION v1.0 (2023-11-27)
  ------------------------------------------------------------

  WARNING 04: minimum elevation drop used for Conduit WS02004404WS02004405
  WARNING 03: negative offset ignored for Link YS02001904YS02001907
  
  ****************
  Analysis Options
  ****************
  Flow Units ............... LPS
  Process Models:
    Rainfall/Runoff ........ YES
    RDII ................... NO
    Snowmelt ............... NO
    Groundwater ............ NO
    Flow Routing ........... YES
    Ponding Allowed ........ NO
    Water Quality .......... NO
  Infiltration Method ...... HORTON
  Flow Routing Method ...... DYNWAVE
  Surcharge Method ......... EXTRAN
  Starting Date ............ 08/28/2015 08:00:00
  Ending Date .............. 08/28/2015 16:00:00
  Antecedent Dry Days ...... 8.0
  Report Time Step ......... 00:01:00
  Wet Time Step ............ 00:01:00
  Dry Time Step ............ 00:01:00
  Routing Time Step ........ 30.00 sec
  Variable Time Step ....... YES
  Maximum Trials ........... 8
  Number of Threads ........ 4
  Head Tolerance ........... 0.001500 m
  
  
  **************************        Volume         Depth
  Runoff Quantity Continuity     hectare-m            mm
  **************************     ---------       -------
  Initial LID Storage ......         0.049         1.488
  Total Precipitation ......         1.870        56.385
  Evaporation Loss .........         0.000         0.000
  Infiltration Loss ........         0.080         2.399
  Surface Runoff ...........         1.371        41.329
  Final Storage ............         0.469        14.150
  Continuity Error (%) .....        -0.009
  
  
  **************************        Volume        Volume
  Flow Routing Continuity        hectare-m      10^6 ltr
  **************************     ---------     ---------
  Dry Weather Inflow .......         0.602         6.020
  Wet Weather Inflow .......         1.371        13.706
  Groundwater Inflow .......         0.000         0.000
  RDII Inflow ..............         0.000         0.000
  External Inflow ..........         0.105         1.045
  External Outflow .........         1.567        15.675
  Flooding Loss ............         0.445         4.446
  Evaporation Loss .........         0.000         0.000
  Exfiltration Loss ........         0.000         0.000
  Initial Stored Volume ....         0.303         3.031
  Final Stored Volume ......         0.824         8.244
  Continuity Error (%) .....       -19.168
  
  
  *************************
  Highest Continuity Errors
  *************************
  Node YS02001774 (42.48%)
  Node WS02006256 (-6.11%)
  Node YS02001754 (4.38%)
  Node YS02001751 (4.00%)
  Node YS02001767 (3.22%)
  
  
  ***************************
  Time-Step Critical Elements
  ***************************
  Link WS02001212WS02001213 (26.19%)
  Link YS02006556YS02006558 (23.32%)
  Link WS02006235WS02006234 (13.97%)
  Link WS02006238WS02006235 (12.86%)
  Link YS02164001YS02001641 (7.60%)
  
  
  ********************************
  Highest Flow Instability Indexes
  ********************************
  Link WS02006113WS02006111 (43)
  Link WS02006111WS02006112 (32)
  Link YS02006558YS02006561 (26)
  Link WS02006238WS02006235 (25)
  Link WS02006256WS02006235 (24)
  
  
  *********************************
  Most Frequent Nonconverging Nodes
  *********************************
  Node CC-1 (12.84%)
  Node CC-2 (12.84%)
  Node JK-1 (12.84%)
  Node JK-2 (12.84%)
  Node WSC (12.84%)
  
  
  *************************
  Routing Time Step Summary
  *************************
  Minimum Time Step           :     0.01 sec
  Average Time Step           :     3.12 sec
  Maximum Time Step           :     6.46 sec
  % of Time in Steady State   :     0.00
  Average Iterations per Step :     3.33
  % of Steps Not Converging   :    12.84
  Time Step Frequencies       :
     30.000 - 13.228 sec      :     0.00 %
     13.228 -  5.833 sec      :    25.33 %
      5.833 -  2.572 sec      :    27.92 %
      2.572 -  1.134 sec      :    24.75 %
      1.134 -  0.500 sec      :    22.00 %
  
  
  ***************************
  Subcatchment Runoff Summary
  ***************************
  
  ------------------------------------------------------------------------------------------------------------------------------
                            Total      Total      Total      Total     Imperv       Perv      Total       Total     Peak  Runoff
                           Precip      Runon       Evap      Infil     Runoff     Runoff     Runoff      Runoff   Runoff   Coeff
  Subcatchment                 mm         mm         mm         mm         mm         mm         mm    10^6 ltr      LPS
  ------------------------------------------------------------------------------------------------------------------------------
  sub60                     56.39       0.00       0.00       1.44      37.36       3.78      41.14        0.54   103.94   0.730
  sub61                     56.39       0.00       0.00       2.22      37.33       5.62      42.95        0.79   151.13   0.762
  sub62                     56.39       0.00       0.00       0.98      39.80       2.57      42.36        1.16   220.39   0.751
  sub63                     56.39       0.00       0.00       4.05      31.97       9.33      41.31        0.94   172.45   0.733
  sub64                     56.39       0.00       0.00       1.95      36.40       4.64      41.05        0.99   183.19   0.728
  sub65                     56.39       0.00       0.00       1.79      39.29       4.24      43.52        1.20   219.93   0.772
  sub66                     56.39       0.00       0.00       4.63      30.91       8.33      39.24        1.83   299.17   0.696
  sub67                     56.39       0.00       0.00       0.97      40.80       2.66      43.47        0.81   155.82   0.771
  sub68                     56.39       0.00       0.00       1.70      36.03       4.31      40.34        1.11   212.03   0.715
  sub69                     56.39       0.00       0.00       1.57      37.90       5.13      43.03        1.59   288.81   0.763
  sub70                     56.39       0.00       0.00       5.07      30.35      10.62      40.98        1.18   185.64   0.727
  sub71                     56.39       0.00       0.00       0.91      36.15       2.32      38.47        1.01   188.13   0.682
  sub72                     56.39       0.00       0.00       0.86      39.04       2.15      41.20        0.57   101.95   0.731
  

  ***********************
  LID Performance Summary
  ***********************

  --------------------------------------------------------------------------------------------------------------------
                                         Total      Evap     Infil   Surface    Drain    Initial     Final  Continuity
                                        Inflow      Loss      Loss   Outflow   Outflow   Storage   Storage       Error
  Subcatchment      LID Control             mm        mm        mm        mm        mm        mm        mm           %
  --------------------------------------------------------------------------------------------------------------------
  sub60             GreenRoof            56.39      0.00      0.00      0.00      0.00      7.05     63.44        0.00
  sub61             GreenRoof            56.39      0.00      0.00      0.00      0.00      7.05     63.44        0.00
  sub62             GreenRoof            56.39      0.00      0.00      0.00      0.00      7.05     63.44        0.00
  sub63             GreenRoof            56.39      0.00      0.00      0.00      0.00      7.05     63.44        0.00
  sub64             GreenRoof            56.39      0.00      0.00      0.00      0.00      7.05     63.44        0.00
  sub65             GreenRoof            56.39      0.00      0.00      0.00      0.00      7.05     63.44        0.00
  sub66             GreenRoof            56.39      0.00      0.00      0.00      0.00      7.05     63.44        0.00
  sub67             GreenRoof            56.39      0.00      0.00      0.00      0.00      7.05     63.44        0.00
  sub68             GreenRoof            56.39      0.00      0.00      0.00      0.00      7.05     63.44        0.00
  sub69             GreenRoof            56.39      0.00      0.00      0.00      0.00      7.05     63.44        0.00
  sub70             GreenRoof            56.39      0.00      0.00      0.00      0.00      7.05     63.44        0.00
  sub71             GreenRoof            56.39      0.00      0.00      0.00      0.00      7.05     63.44        0.00
  sub72             GreenRoof            56.39      0.00      0.00      0.00      0.00      7.05     63.44        0.00
  
  ******************
  Node Depth Summary
  ******************
  
  ---------------------------------------------------------------------------------
                                 Average  Maximum  Maximum  Time of Max    Reported
                                   Depth    Depth      HGL   Occurrence   Max Depth
  Node                 Type       Meters   Meters   Meters  days hr:min      Meters
  ---------------------------------------------------------------------------------
  WS02001211           JUNCTION     0.76     0.78     5.62     0  02:14        0.78
  WS02001212           JUNCTION     0.47     0.49     5.55     0  02:13        0.49
  WS02001213           JUNCTION     0.69     0.73     5.49     0  02:13        0.73
  WS02003059           JUNCTION     0.74     0.78     5.47     0  02:12        0.78
  WS02003060           JUNCTION     0.40     0.47     5.41     0  02:11        0.47
  WS02003066           JUNCTION     0.18     0.27     5.82     0  03:18        0.27
  WS02003067           JUNCTION     0.48     0.65     5.97     0  03:17        0.65
  WS02003069           JUNCTION     0.45     0.54     5.12     0  02:12        0.54
  WS02003072           JUNCTION     0.51     0.60     4.97     0  02:13        0.60
  WS02003073           JUNCTION     0.31     0.37     4.43     0  02:14        0.37
  WS02004138           JUNCTION     0.19     0.20     7.45     0  00:00        0.19
  WS02004139           JUNCTION     0.71     0.73     5.64     0  02:15        0.73
  WS02004401           JUNCTION     0.56     0.75     6.75     0  03:32        0.75
  WS02004402           JUNCTION     0.60     0.78     6.74     0  03:13        0.78
  WS02004403           JUNCTION     0.62     0.80     6.73     0  03:15        0.80
  WS02004404           JUNCTION     0.69     0.88     6.73     0  03:15        0.88
  WS02004405           JUNCTION     0.69     0.88     6.73     0  03:33        0.87
  WS02004406           JUNCTION     0.70     0.88     6.71     0  03:15        0.88
  WS02004407           JUNCTION     0.16     0.26     6.57     0  03:15        0.26
  WS02004409           JUNCTION     0.36     0.57     6.34     0  03:16        0.57
  WS02004410           JUNCTION     0.39     0.59     6.31     0  03:16        0.59
  WS02004411           JUNCTION     0.41     0.61     6.29     0  03:13        0.61
  WS02004412           JUNCTION     0.43     0.62     6.26     0  03:17        0.62
  WS02004413           JUNCTION     0.59     0.79     6.26     0  03:17        0.79
  WS02006109           JUNCTION     0.63     0.83     7.45     0  02:15        0.83
  WS02006110           JUNCTION     0.63     0.82     7.41     0  02:15        0.82
  WS02006111           JUNCTION     0.17     0.25     6.96     0  01:42        0.25
  WS02006112           JUNCTION     0.72     0.93     6.82     0  03:31        0.93
  WS02006113           JUNCTION     0.26     0.39     7.29     0  02:16        0.39
  WS02006115           JUNCTION     0.45     0.65     6.78     0  03:32        0.65
  WS02006116           JUNCTION     0.53     0.73     6.77     0  03:32        0.73
  WS02006228           JUNCTION     0.62     0.84     7.49     0  02:15        0.84
  WS02006229           JUNCTION     0.59     0.82     7.52     0  02:19        0.82
  WS02006230           JUNCTION     0.59     0.86     7.60     0  02:19        0.86
  WS02006231           JUNCTION     0.37     0.60     7.72     0  02:28        0.60
  WS02006232           JUNCTION     0.50     0.75     7.79     0  02:28        0.75
  WS02006234           JUNCTION     0.43     0.71     7.87     0  02:28        0.71
  WS02006235           JUNCTION     0.46     0.76     7.93     0  02:38        0.76
  WS02006238           JUNCTION     0.49     0.81     7.95     0  02:25        0.81
  WS02006239           JUNCTION     0.47     0.81     8.02     0  02:28        0.81
  WS02006240           JUNCTION     0.46     0.79     8.08     0  02:31        0.79
  WS02006242           JUNCTION     0.54     0.91     8.17     0  02:28        0.90
  WS02006243           JUNCTION     0.47     0.84     8.26     0  02:19        0.84
  WS02006245           JUNCTION     0.48     0.86     8.34     0  02:31        0.85
  WS02006247           JUNCTION     0.50     0.89     8.39     0  03:08        0.89
  WS02006248           JUNCTION     0.48     0.86     8.44     0  02:23        0.85
  WS02006249           JUNCTION     0.50     0.91     8.51     0  02:20        0.91
  WS02006251           JUNCTION     0.50     0.91     8.58     0  02:28        0.91
  WS02006252           JUNCTION     0.34     1.50     9.74     0  00:00        0.59
  WS02006256           JUNCTION     0.70     2.35     9.28     0  00:00        2.35
  WSF200               JUNCTION     0.15     0.25     5.48     0  03:18        0.25
  YS02001580           JUNCTION     0.05     0.49     9.03     0  02:09        0.48
  YS02001583           JUNCTION     0.09     0.53     9.02     0  02:09        0.52
  YS02001586           JUNCTION     0.23     0.86     9.04     0  02:09        0.85
  YS02001590           JUNCTION     0.40     1.16     9.02     0  02:09        1.14
  YS02001593           JUNCTION     0.36     1.15     9.01     0  02:09        1.12
  YS02001596           JUNCTION     0.68     1.56     8.98     0  02:09        1.54
  YS02001600           JUNCTION     0.93     1.81     8.94     0  02:09        1.80
  YS02001601           JUNCTION     1.19     2.06     8.90     0  02:08        2.06
  YS02001602           JUNCTION     1.07     1.87     8.77     0  02:10        1.87
  YS02001605           JUNCTION     0.99     1.78     8.68     0  02:29        1.78
  YS02001607           JUNCTION     0.91     1.64     8.49     0  02:29        1.64
  YS02001610           JUNCTION     0.95     1.68     8.48     0  02:29        1.68
  YS02001613           JUNCTION     0.91     1.63     8.47     0  02:29        1.63
  YS02001616           JUNCTION     0.84     1.54     8.45     0  02:29        1.54
  YS02001619           JUNCTION     0.82     1.51     8.44     0  02:29        1.51
  YS02001622           JUNCTION     0.83     1.51     8.41     0  02:29        1.51
  YS02001625           JUNCTION     1.09     1.76     8.37     0  02:29        1.75
  YS02001629           JUNCTION     1.11     1.78     8.33     0  02:28        1.78
  YS02001633           JUNCTION     1.17     1.85     8.31     0  02:28        1.85
  YS02001641           JUNCTION     1.13     1.78     8.22     0  02:28        1.78
  YS02001644           JUNCTION     1.12     1.76     8.19     0  02:28        1.75
  YS02001647           JUNCTION     0.90     1.54     8.15     0  02:28        1.52
  YS02001649           JUNCTION     1.05     1.70     8.09     0  02:28        1.70
  YS02001652           JUNCTION     0.87     1.49     8.08     0  02:30        1.48
  YS02001655           JUNCTION     0.65     1.24     8.09     0  02:31        1.23
  YS02001658           JUNCTION     0.45     0.95     8.09     0  02:31        0.93
  YS02001661           JUNCTION     0.31     0.68     8.08     0  02:31        0.66
  YS02001664           JUNCTION     0.08     0.16     8.08     0  01:32        0.16
  YS02001745           JUNCTION     0.21     0.54     8.06     0  02:28        0.52
  YS02001748           JUNCTION     0.48     0.97     8.05     0  02:30        0.96
  YS02001751           JUNCTION     0.61     1.17     8.05     0  02:28        1.16
  YS02001754           JUNCTION     0.82     1.44     8.05     0  02:28        1.44
  YS02001757           JUNCTION     1.13     1.80     8.06     0  02:28        1.80
  YS02001759           JUNCTION     1.04     1.73     8.09     0  02:28        1.73
  YS02001762           JUNCTION     1.01     1.71     8.11     0  02:28        1.71
  YS02001765           JUNCTION     0.97     1.69     8.14     0  02:28        1.68
  YS02001767           JUNCTION     0.94     1.67     8.16     0  02:28        1.67
  YS02001770           JUNCTION     0.94     1.70     8.19     0  02:28        1.69
  YS02001774           JUNCTION     1.01     1.78     8.20     0  02:28        1.77
  YS02001779           JUNCTION     0.77     1.52     8.20     0  02:28        1.51
  YS02001783           JUNCTION     0.54     2.25     8.39     0  01:29        1.00
  YS02001784           JUNCTION     0.59     1.68     7.75     0  01:29        0.99
  YS02001786           JUNCTION     0.59     1.91     7.94     0  01:29        0.92
  YS02001788           JUNCTION     0.60     2.02     8.00     0  01:29        0.87
  YS02001790           JUNCTION     0.86     1.96     7.60     0  01:28        1.12
  YS02001791           JUNCTION     0.97     2.72     8.19     0  01:27        1.29
  YS02001793           JUNCTION     1.48     2.58     7.41     0  01:27        1.89
  YS02001882           JUNCTION     0.33     0.64     7.36     0  01:32        0.64
  YS02001884           JUNCTION     0.42     0.73     7.34     0  01:31        0.73
  YS02001887           JUNCTION     0.50     0.81     7.35     0  01:32        0.80
  YS02001890           JUNCTION     0.53     0.84     7.35     0  01:31        0.83
  YS02001895           JUNCTION     0.30     0.60     7.34     0  01:31        0.59
  YS02001898           JUNCTION     0.31     0.61     7.35     0  01:30        0.61
  YS02001901           JUNCTION     0.43     0.73     7.34     0  01:30        0.73
  YS02001904           JUNCTION     0.41     0.71     7.34     0  01:30        0.70
  YS02001907           JUNCTION     0.72     1.05     7.34     0  01:29        1.03
  YS02001910           JUNCTION     0.52     0.84     7.35     0  01:32        0.84
  YS02001915           JUNCTION     0.33     0.62     7.34     0  01:33        0.62
  YS02001918           JUNCTION     0.12     0.27     7.33     0  01:31        0.26
  YS02001920           JUNCTION     0.21     0.35     7.36     0  01:32        0.35
  YS02001923           JUNCTION     0.08     0.15     7.41     0  01:33        0.15
  YS02001926           JUNCTION     0.15     0.27     7.72     0  01:33        0.27
  YS02001929           JUNCTION     0.08     0.15     7.84     0  01:32        0.15
  YS02006553           JUNCTION     0.73     1.06     7.34     0  01:36        1.04
  YS02006556           JUNCTION     0.70     1.02     7.33     0  01:30        1.00
  YS02006558           JUNCTION     0.74     1.06     7.33     0  01:41        1.05
  YS02006561           JUNCTION     0.17     0.47     7.13     0  01:30        0.47
  YS02163301           JUNCTION     1.13     1.80     8.32     0  02:28        1.80
  YS02163601           JUNCTION     1.20     1.87     8.27     0  02:28        1.87
  YS02164001           JUNCTION     1.12     1.79     8.24     0  02:28        1.79
  CC-1                 OUTFALL      0.00     0.00     0.00     0  00:00        0.00
  CC-2                 OUTFALL      0.00     0.00     0.00     0  00:00        0.00
  JK-1                 OUTFALL      0.00     0.00     0.00     0  00:00        0.00
  JK-2                 OUTFALL      0.00     0.00     0.00     0  00:00        0.00
  WSC                  OUTFALL      0.31     0.37     1.04     0  02:14        0.37
  CC-storage           STORAGE      1.72     2.30     7.80     0  02:30        2.30
  JK-storage           STORAGE      4.95     5.80     6.60     0  01:28        5.80
  XR-storage           STORAGE      0.25     5.00     3.00     0  00:00        4.91
  
  
  *******************
  Node Inflow Summary
  *******************
  
  -------------------------------------------------------------------------------------------------
                                  Maximum  Maximum                  Lateral       Total        Flow
                                  Lateral    Total  Time of Max      Inflow      Inflow     Balance
                                   Inflow   Inflow   Occurrence      Volume      Volume       Error
  Node                 Type           LPS      LPS  days hr:min    10^6 ltr    10^6 ltr     Percent
  -------------------------------------------------------------------------------------------------
  WS02001211           JUNCTION      7.35   389.14     0  03:43       0.212        11.1       0.348
  WS02001212           JUNCTION      0.00   390.85     0  03:46           0        11.1       0.207
  WS02001213           JUNCTION      0.00   392.62     0  03:45           0        11.1       0.238
  WS02003059           JUNCTION      0.00   395.66     0  03:45           0          11       0.328
  WS02003060           JUNCTION     16.53   816.04     0  03:18       0.476        15.1       0.142
  WS02003066           JUNCTION      0.00   411.85     0  03:17           0        3.68       0.032
  WS02003067           JUNCTION      0.00   411.84     0  03:17           0        3.68       0.109
  WS02003069           JUNCTION      0.32   816.35     0  02:12     0.00922        15.1       0.150
  WS02003072           JUNCTION      0.00   816.35     0  02:13           0        15.1       0.196
  WS02003073           JUNCTION      1.82   818.16     0  02:13      0.0524        15.1       0.210
  WS02004138           JUNCTION      0.00   380.00     0  00:00           0        10.9       0.059
  WS02004139           JUNCTION      0.32   395.52     0  00:00     0.00924        10.9       0.407
  WS02004401           JUNCTION      0.00   412.15     0  03:13           0        3.78       0.262
  WS02004402           JUNCTION      0.00   412.06     0  03:14           0        3.77       0.267
  WS02004403           JUNCTION      0.00   412.01     0  03:13           0        3.76       0.262
  WS02004404           JUNCTION      0.16   412.14     0  03:13     0.00467        3.75       0.219
  WS02004405           JUNCTION      0.04   412.17     0  03:13      0.0011        3.75       0.326
  WS02004406           JUNCTION      0.00   412.31     0  03:15           0        3.74       0.546
  WS02004407           JUNCTION      0.00   412.04     0  03:15           0        3.71       0.025
  WS02004409           JUNCTION      0.00   411.97     0  03:15           0        3.71       0.059
  WS02004410           JUNCTION      0.00   411.90     0  03:16           0        3.71       0.105
  WS02004411           JUNCTION      0.00   411.94     0  03:16           0        3.71       0.138
  WS02004412           JUNCTION      0.00   411.87     0  02:10           0         3.7       0.188
  WS02004413           JUNCTION      0.00   411.92     0  03:17           0         3.7       0.339
  WS02006109           JUNCTION      1.23   411.71     0  02:29      0.0354        3.82       0.181
  WS02006110           JUNCTION      0.00   411.71     0  02:29           0        3.82       0.162
  WS02006111           JUNCTION      0.00   423.41     0  03:31           0        3.81       0.019
  WS02006112           JUNCTION      0.00   414.22     0  01:42           0        3.81       0.458
  WS02006113           JUNCTION      0.00   411.93     0  03:04           0        3.81       0.038
  WS02006115           JUNCTION      0.00   412.38     0  03:31           0        3.79       0.164
  WS02006116           JUNCTION      0.00   412.18     0  03:32           0        3.78       0.124
  WS02006228           JUNCTION      0.00   410.48     0  02:29           0        3.79       0.061
  WS02006229           JUNCTION      0.00   410.48     0  02:29           0        3.79       0.119
  WS02006230           JUNCTION     10.28   410.56     0  02:28       0.296         3.8       0.145
  WS02006231           JUNCTION      0.00   400.39     0  02:28           0         3.5      -0.066
  WS02006232           JUNCTION      0.00   400.37     0  02:28           0        3.51       0.228
  WS02006234           JUNCTION      0.00   401.45     0  02:28           0         3.5      -0.155
  WS02006235           JUNCTION      0.00   401.99     0  02:27           0        3.52       0.202
  WS02006238           JUNCTION      0.00   401.39     0  02:24           0         3.5      -0.243
  WS02006239           JUNCTION      0.00   401.25     0  02:28           0        3.48      -0.207
  WS02006240           JUNCTION      0.00   400.88     0  02:28           0        3.48      -0.042
  WS02006242           JUNCTION      0.00   401.31     0  02:15           0        3.47       0.002
  WS02006243           JUNCTION      0.00   401.43     0  02:27           0        3.47      -0.040
  WS02006245           JUNCTION      0.00   403.04     0  02:22           0        3.48       0.314
  WS02006247           JUNCTION      0.00   401.54     0  02:26           0        3.48      -0.008
  WS02006248           JUNCTION      0.00   401.00     0  02:23           0        3.48       0.039
  WS02006249           JUNCTION      0.00   473.16     0  01:21           0        3.49       0.259
  WS02006251           JUNCTION      0.08   401.19     0  02:35     0.00222        3.49       0.003
  WS02006252           JUNCTION      0.00   400.00     0  00:00           0        3.49      -0.045
  WS02006256           JUNCTION      0.00   300.00     0  00:00           0      0.0242      -5.757
  WSF200               JUNCTION      0.00   411.84     0  03:18           0        3.68       0.015
  YS02001580           JUNCTION      0.00    46.22     0  02:26           0      0.0153      -0.351
  YS02001583           JUNCTION      0.00    44.98     0  02:29           0      0.0292      -1.240
  YS02001586           JUNCTION    185.64   189.09     0  02:12        1.18         1.2       0.066
  YS02001590           JUNCTION      0.00   189.22     0  02:12           0        1.18       0.025
  YS02001593           JUNCTION      0.00   189.20     0  02:12           0        1.18       0.014
  YS02001596           JUNCTION      0.00   189.25     0  02:12           0        1.18       0.282
  YS02001600           JUNCTION      0.00   189.06     0  02:12           0        1.18       0.681
  YS02001601           JUNCTION    288.81   452.70     0  01:36        1.59        2.76       0.317
  YS02001602           JUNCTION      0.00   452.47     0  01:36           0        2.76       0.331
  YS02001605           JUNCTION      0.00   452.34     0  01:36           0        2.75       0.511
  YS02001607           JUNCTION      0.00   452.47     0  01:36           0        2.73       0.780
  YS02001610           JUNCTION      0.00   453.09     0  01:36           0        2.71       0.856
  YS02001613           JUNCTION      0.00   453.12     0  01:36           0         2.7       0.895
  YS02001616           JUNCTION      0.00   453.01     0  01:36           0        2.68       0.803
  YS02001619           JUNCTION    299.17   743.60     0  01:36        1.83        4.49       0.466
  YS02001622           JUNCTION      0.00   744.23     0  01:37           0        4.46       0.653
  YS02001625           JUNCTION      0.00   745.98     0  01:37           0        4.43       1.036
  YS02001629           JUNCTION      0.00   746.44     0  01:37           0        4.38       0.505
  YS02001633           JUNCTION    220.13   955.14     0  01:37         1.2        5.54       0.577
  YS02001641           JUNCTION      0.00   954.98     0  01:36           0        5.47       0.383
  YS02001644           JUNCTION    183.23  1129.86     0  01:35       0.987        6.44       0.400
  YS02001647           JUNCTION      0.00  1129.55     0  01:35           0         6.4       0.434
  YS02001649           JUNCTION      0.00  1296.26     0  01:35           0        7.26       0.519
  YS02001652           JUNCTION      0.00   174.49     0  02:12           0       0.929       2.426
  YS02001655           JUNCTION      0.15   247.97     0  02:12     0.00443       0.951       2.519
  YS02001658           JUNCTION      0.00   356.73     0  02:22           0       0.962       1.535
  YS02001661           JUNCTION      0.00   247.61     0  02:23           0       0.954       0.770
  YS02001664           JUNCTION    172.45   172.45     0  01:32       0.937       0.937      -0.037
  YS02001745           JUNCTION    103.94   135.99     0  02:27       0.541       0.554       0.705
  YS02001748           JUNCTION      0.04   201.79     0  02:14      0.0013       0.564       2.735
  YS02001751           JUNCTION      0.01   148.49     0  02:13    0.000317        0.55       4.168
  YS02001754           JUNCTION      0.26   112.02     0  02:17     0.00749       0.537       4.580
  YS02001757           JUNCTION      0.00  1756.32     0  01:34           0        9.51       0.990
  YS02001759           JUNCTION    151.17   363.87     0  01:33       0.789        1.83       1.248
  YS02001762           JUNCTION      0.00   215.39     0  01:33           0        1.06       2.014
  YS02001765           JUNCTION      0.00   217.93     0  01:33           0        1.08       2.293
  YS02001767           JUNCTION      0.54   216.98     0  01:31      0.0154        1.12       3.324
  YS02001770           JUNCTION    220.54   220.54     0  01:31        1.16        1.18       2.677
  YS02001774           JUNCTION      0.00    80.40     0  03:58           0      0.0594      73.865
  YS02001779           JUNCTION      0.01    32.79     0  02:02    0.000144      0.0223     201.230
  YS02001783           JUNCTION      0.00   715.23     0  01:29           0        3.54       0.192
  YS02001784           JUNCTION      1.06   675.73     0  01:30      0.0305        3.57       0.300
  YS02001786           JUNCTION      0.06   676.23     0  01:30     0.00162        3.56       0.359
  YS02001788           JUNCTION      0.07   677.18     0  01:30     0.00204        3.55       0.377
  YS02001790           JUNCTION      0.15   679.03     0  01:30     0.00446        3.54       0.481
  YS02001791           JUNCTION      0.00   679.21     0  01:30           0        3.52       0.381
  YS02001793           JUNCTION      0.00   717.95     0  01:27           0        3.51       0.421
  YS02001882           JUNCTION      0.00    36.33     0  01:58           0      0.0458       1.524
  YS02001884           JUNCTION      0.00    52.90     0  01:15           0      0.0826       3.120
  YS02001887           JUNCTION    156.27   188.59     0  01:32       0.821       0.855       0.512
  YS02001890           JUNCTION      0.00   181.58     0  01:32           0       0.814       0.633
  YS02001895           JUNCTION      0.00   183.10     0  01:32           0       0.808       0.266
  YS02001898           JUNCTION      0.00   186.07     0  01:33           0       0.806      -0.005
  YS02001901           JUNCTION      0.00   191.54     0  01:32           0        0.81       0.416
  YS02001904           JUNCTION      0.00   172.44     0  01:32           0       0.818       0.352
  YS02001907           JUNCTION      0.00   475.18     0  01:32           0        2.47       0.724
  YS02001910           JUNCTION      0.00   342.43     0  01:33           0        1.65       0.423
  YS02001915           JUNCTION    188.15   310.40     0  01:32        1.01        1.66       0.096
  YS02001918           JUNCTION      0.00   112.61     0  01:32           0        0.65       0.044
  YS02001920           JUNCTION      2.87   104.84     0  01:33      0.0827       0.651       0.160
  YS02001923           JUNCTION      0.04   101.97     0  01:33     0.00109       0.569       0.001
  YS02001926           JUNCTION      0.05   101.99     0  01:32      0.0015       0.568       0.045
  YS02001929           JUNCTION    101.95   101.95     0  01:32       0.566       0.566      -0.008
  YS02006553           JUNCTION      0.00   465.74     0  01:31           0        2.47       0.475
  YS02006556           JUNCTION      0.00   464.77     0  01:31           0        2.48       0.332
  YS02006558           JUNCTION    212.91   691.95     0  01:31        1.14        3.58       0.108
  YS02006561           JUNCTION      0.00   688.69     0  01:32           0        3.54      -0.021
  YS02163301           JUNCTION      0.00   747.17     0  01:37           0        4.37       0.549
  YS02163601           JUNCTION      0.11   954.87     0  01:37     0.00317        5.51       0.543
  YS02164001           JUNCTION      0.00   954.95     0  01:36           0        5.48       0.354
  CC-1                 OUTFALL       0.00   683.00     0  00:00           0       0.208       0.000
  CC-2                 OUTFALL       0.00   683.00     0  00:00           0       0.208       0.000
  JK-1                 OUTFALL       0.00  1000.00     0  00:00           0      0.0791       0.000
  JK-2                 OUTFALL       0.00  1000.00     0  00:00           0      0.0791       0.000
  WSC                  OUTFALL       0.00   818.15     0  02:14           0        15.1       0.000
  CC-storage           STORAGE       0.00  1749.75     0  01:33           0        11.6       0.422
  JK-storage           STORAGE       0.00   848.26     0  01:26           0        3.64       0.437
  XR-storage           STORAGE     200.00   200.00     0  00:00        5.76        6.36     -41.886
  
  
  **********************
  Node Surcharge Summary
  **********************
  
  Surcharging occurs when water rises above the top of the highest conduit.
  ---------------------------------------------------------------------
                                               Max. Height   Min. Depth
                                   Hours       Above Crown    Below Rim
  Node                 Type      Surcharged         Meters       Meters
  ---------------------------------------------------------------------
  WS02006109           JUNCTION        1.97          0.015        1.805
  WS02006228           JUNCTION        1.96          0.013        2.187
  WS02006229           JUNCTION        1.98          0.024        2.426
  WS02006232           JUNCTION        2.03          0.050        1.430
  WS02006235           JUNCTION        1.97          0.054        1.236
  WS02006238           JUNCTION        2.00          0.089        1.341
  WS02006239           JUNCTION        1.98          0.066        1.224
  WS02006240           JUNCTION        1.99          0.078        1.312
  WS02006242           JUNCTION        2.08          0.175        0.645
  WS02006243           JUNCTION        2.00          0.133        0.637
  WS02006245           JUNCTION        2.00          0.146        0.704
  WS02006247           JUNCTION        2.02          0.180        0.580
  WS02006248           JUNCTION        2.00          0.138        0.242
  WS02006249           JUNCTION        2.01          0.208        0.182
  WS02006252           JUNCTION        2.42          1.100        0.000
  WS02006256           JUNCTION        3.42          2.050        0.000
  YS02001586           JUNCTION        0.51          0.242        0.268
  YS02001590           JUNCTION        1.36          0.514        0.236
  YS02001593           JUNCTION        1.38          0.526        0.314
  YS02001596           JUNCTION        1.66          0.828        0.242
  YS02001600           JUNCTION        2.02          1.129        0.061
  YS02001601           JUNCTION        6.80          1.440        0.000
  YS02001602           JUNCTION        6.77          1.270        0.000
  YS02001605           JUNCTION        6.75          1.180        0.000
  YS02001607           JUNCTION        1.18          0.642        0.038
  YS02001610           JUNCTION        1.50          0.680        0.000
  YS02001613           JUNCTION        1.20          0.629        0.071
  YS02001616           JUNCTION        1.08          0.539        0.071
  YS02001619           JUNCTION        1.06          0.514        0.096
  YS02001622           JUNCTION        1.07          0.509        0.111
  YS02001625           JUNCTION        6.55          0.762        0.018
  YS02001629           JUNCTION        1.02          0.402        0.068
  YS02001633           JUNCTION        6.57          0.833        0.227
  YS02001641           JUNCTION        6.26          0.781        0.319
  YS02001644           JUNCTION        6.10          0.758        0.162
  YS02001647           JUNCTION        5.98          0.538        0.362
  YS02001649           JUNCTION        6.06          0.699        0.351
  YS02001652           JUNCTION        5.94          0.456        0.674
  YS02001655           JUNCTION        0.77          0.244        0.956
  YS02001751           JUNCTION        0.66          0.170        1.030
  YS02001754           JUNCTION        5.87          0.393        0.757
  YS02001757           JUNCTION        6.10          0.797        0.413
  YS02001759           JUNCTION        6.04          0.726        0.484
  YS02001762           JUNCTION        6.02          0.715        0.435
  YS02001765           JUNCTION        6.00          0.685        0.415
  YS02001767           JUNCTION        5.98          0.671        0.359
  YS02001770           JUNCTION        5.96          0.666        0.254
  YS02001774           JUNCTION        6.01          0.776        0.274
  YS02001779           JUNCTION        5.86          0.516        0.164
  YS02001783           JUNCTION        0.35          1.446        0.154
  YS02001784           JUNCTION        0.66          0.880        0.610
  YS02001786           JUNCTION        0.38          1.114        0.316
  YS02001788           JUNCTION        0.25          1.222        0.258
  YS02001790           JUNCTION        6.53          1.157        0.000
  YS02001791           JUNCTION        6.53          1.920        0.000
  YS02001793           JUNCTION        6.55          1.580        1.020
  YS02001907           JUNCTION        0.61          0.043        0.907
  YS02006553           JUNCTION        0.81          0.057        1.133
  YS02163301           JUNCTION        6.55          0.803        0.227
  YS02163601           JUNCTION        6.59          0.869        0.211
  YS02164001           JUNCTION        6.47          0.787        0.313
  
  
  *********************
  Node Flooding Summary
  *********************
  
  Flooding refers to all water that overflows a node, whether it ponds or not.
  --------------------------------------------------------------------------
                                                             Total   Maximum
                                 Maximum   Time of Max       Flood    Ponded
                        Hours       Rate    Occurrence      Volume     Depth
  Node                 Flooded       LPS   days hr:min    10^6 ltr    Meters
  --------------------------------------------------------------------------
  WS02006252              0.01    245.63      0  00:00       0.000     0.000
  WS02006256              0.02    293.19      0  00:00       0.005     0.000
  YS02001601              0.01      4.30      0  02:10       0.000     0.000
  YS02001602              0.02      6.10      0  02:29       0.000     0.000
  YS02001605              0.01      0.43      0  02:29       0.000     0.000
  YS02001610              0.01      1.67      0  02:29       0.000     0.000
  YS02001790              0.01    122.08      0  01:28       0.000     0.000
  YS02001791              0.01    272.38      0  01:27       0.000     0.000
  CC-storage              0.63    864.30      0  02:30       1.286     0.000
  JK-storage              6.52    679.38      0  01:30       3.153     0.000
  
  
  **********************
  Storage Volume Summary
  **********************
  
  ------------------------------------------------------------------------------------------------
                         Average    Avg   Evap  Exfil     Maximum    Max    Time of Max    Maximum
                          Volume   Pcnt   Pcnt   Pcnt      Volume   Pcnt     Occurrence    Outflow
  Storage Unit           1000 m³   Full   Loss   Loss     1000 m³   Full    days hr:min        LPS
  ------------------------------------------------------------------------------------------------
  CC-storage               4.784   74.6    0.0    0.0       6.410  100.0       0  02:30    1783.53
  JK-storage               0.249   85.4    0.0    0.0       0.291  100.0       0  01:28    2300.00
  XR-storage               0.030    2.1    0.0    0.0       0.600   41.7       0  00:00     380.00
  
  
  ***********************
  Outfall Loading Summary
  ***********************
  
  -----------------------------------------------------------
                         Flow       Avg       Max       Total
                         Freq      Flow      Flow      Volume
  Outfall Node           Pcnt       LPS       LPS    10^6 ltr
  -----------------------------------------------------------
  CC-1                   1.10    683.00    683.00       0.208
  CC-2                   1.10    683.00    683.00       0.208
  JK-1                   1.03    347.46   1000.00       0.079
  JK-2                   1.03    347.46   1000.00       0.079
  WSC                   99.94    608.02    818.15      15.100
  -----------------------------------------------------------
  System                20.84   2668.94   3366.35      15.675
  
  
  ********************
  Link Flow Summary
  ********************
  
  -----------------------------------------------------------------------------
                                 Maximum  Time of Max   Maximum    Max/    Max/
                                  |Flow|   Occurrence   |Veloc|    Full    Full
  Link                 Type          LPS  days hr:min     m/sec    Flow   Depth
  -----------------------------------------------------------------------------
  1                    CONDUIT    818.15     0  02:14      3.15    0.28    0.37
  WS02001211WS02001212 CONDUIT    390.85     0  03:46      0.78    0.30    0.64
  WS02001212WS02001213 CONDUIT    392.62     0  03:45      1.32    0.61    0.45
  WS02001213WS02003059 CONDUIT    395.66     0  03:45      0.85    0.65    0.75
  WS02003059WS02003060 CONDUIT    399.93     0  03:45      0.95    0.26    0.63
  WS02003060WS02003069 CONDUIT    816.03     0  02:12      1.80    0.32    0.42
  WS02003066WSF200     CONDUIT    411.84     0  03:18      2.69    0.07    0.19
  WS02003067WS02003066 CONDUIT    411.85     0  03:17      1.04    0.13    0.38
  WS02003069WS02003072 CONDUIT    816.35     0  02:13      1.55    0.39    0.47
  WS02003072WS02003073 CONDUIT    816.34     0  02:13      1.64    1.76    0.45
  WS02004138WS02004139 CONDUIT    395.20     0  00:00      3.65    0.08    0.43
  WS02004139WS02001211 CONDUIT    381.79     0  03:43      0.91    0.48    0.59
  WS02004401WS02004402 CONDUIT    412.06     0  03:14      0.99    0.49    0.77
  WS02004402WS02004403 CONDUIT    412.01     0  03:13      0.99    0.59    0.79
  WS02004403WS02004404 CONDUIT    411.98     0  03:13      0.93    0.30    0.84
  WS02004404WS02004405 CONDUIT    412.13     0  03:13      1.10    4.04    0.88
  WS02004405WS02004406 CONDUIT    412.31     0  03:15      1.03    0.81    0.88
  WS02004406WS02004407 CONDUIT    412.04     0  03:15      0.89    0.18    0.57
  WS02004407WS02004409 CONDUIT    411.97     0  03:15      1.35    0.15    0.42
  WS02004409WS02004410 CONDUIT    411.90     0  03:16      0.88    0.53    0.58
  WS02004410WS02004411 CONDUIT    411.94     0  03:16      0.84    0.56    0.60
  WS02004411WS02004412 CONDUIT    411.87     0  02:10      0.81    0.59    0.61
  WS02004412WS02004413 CONDUIT    411.92     0  03:17      0.70    0.28    0.70
  WS02004413WS02003067 CONDUIT    411.84     0  03:17      0.96    0.18    0.53
  WS02006109WS02006110 CONDUIT    411.71     0  02:29      0.84    0.79    0.94
  WS02006110WS02006113 CONDUIT    411.93     0  03:04      1.03    0.37    0.75
  WS02006111WS02006112 CONDUIT    414.22     0  01:42      1.83    0.20    0.65
  WS02006112WS02006115 CONDUIT    412.38     0  03:31      0.70    0.24    0.78
  WS02006113WS02006111 CONDUIT    423.41     0  03:31      2.25    0.51    0.40
  WS02006115WS02006116 CONDUIT    412.18     0  03:32      0.98    0.53    0.66
  WS02006116WS02004401 CONDUIT    412.15     0  03:13      1.00    0.57    0.74
  WS02006228WS02006109 CONDUIT    410.48     0  02:29      1.06    1.79    1.00
  WS02006229WS02006228 CONDUIT    410.48     0  02:29      1.13    1.36    1.00
  WS02006230WS02006229 CONDUIT    410.48     0  02:29      1.22    9.13    1.00
  WS02006231WS02006230 CONDUIT    400.28     0  02:28      1.37    6.07    0.77
  WS02006232WS02006231 CONDUIT    400.39     0  02:28      1.08    0.84    0.92
  WS02006234WS02006232 CONDUIT    400.37     0  02:28      1.40    0.81    1.00
  WS02006235WS02006234 CONDUIT    401.45     0  02:28      1.29    4.24    0.99
  WS02006238WS02006235 CONDUIT    401.95     0  02:27      1.48    0.90    1.00
  WS02006239WS02006238 CONDUIT    401.39     0  02:24      1.21    1.28    1.00
  WS02006240WS02006239 CONDUIT    401.25     0  02:28      1.30    1.26    1.00
  WS02006242WS02006240 CONDUIT    400.88     0  02:28      1.17    1.59    1.00
  WS02006243WS02006242 CONDUIT    401.31     0  02:15      1.41    0.86    1.00
  WS02006245WS02006243 CONDUIT    401.43     0  02:27      1.45    1.19    1.00
  WS02006247WS02006245 CONDUIT    403.04     0  02:22      1.43    3.20    1.00
  WS02006248WS02006247 CONDUIT    401.54     0  02:26      1.44    0.87    1.00
  WS02006249WS02006248 CONDUIT    401.00     0  02:23      1.40    2.20    1.00
  WS02006251WS02006249 CONDUIT    473.16     0  01:21      1.99    1.36    1.00
  WS02006252WS02006251 CONDUIT    401.11     0  02:35     24.55    1.47    1.00
  WS02006256WS02006235 CONDUIT    288.91     0  00:00      4.23    3.06    1.00
  WSF200WS02003060     CONDUIT    411.84     0  02:11      1.43    0.09    0.30
  YS02001580YS02001583 CONDUIT     46.22     0  02:26      0.23    0.18    0.84
  YS02001583YS02001586 CONDUIT     31.78     0  02:03      0.14    0.05    0.91
  YS02001586YS02001590 CONDUIT    189.22     0  02:12      1.23    0.33    1.00
  YS02001590YS02001593 CONDUIT    189.20     0  02:12      0.99    1.19    1.00
  YS02001593YS02001596 CONDUIT    189.25     0  02:12      1.63    0.30    1.00
  YS02001596YS02001600 CONDUIT    189.06     0  02:12      1.08    0.37    1.00
  YS02001600YS02001601 CONDUIT    188.90     0  02:12      0.67    0.33    1.00
  YS02001601YS02001602 CONDUIT    452.47     0  01:36      1.60    1.63    1.00
  YS02001602YS02001605 CONDUIT    452.34     0  01:36      1.60    9.57    1.00
  YS02001605YS02001607 CONDUIT    452.47     0  01:36      1.60    2.48    1.00
  YS02001607YS02001610 CONDUIT    453.09     0  01:36      0.67    0.43    1.00
  YS02001610YS02001613 CONDUIT    453.12     0  01:36      0.59    0.52    1.00
  YS02001613YS02001616 CONDUIT    453.01     0  01:36      0.64    0.39    1.00
  YS02001616YS02001619 CONDUIT    453.47     0  01:37      0.69    0.79    1.00
  YS02001619YS02001622 CONDUIT    744.23     0  01:37      1.44    1.10    1.00
  YS02001622YS02001625 CONDUIT    745.98     0  01:37      0.99    0.40    1.00
  YS02001625YS02001629 CONDUIT    746.44     0  01:37      1.04    0.35    1.00
  YS02001629YS02163301 CONDUIT    747.17     0  01:37      0.95    0.92    1.00
  YS02001633YS02163601 CONDUIT    954.76     0  01:37      1.22    1.00    1.00
  YS02001641YS02001644 CONDUIT    954.95     0  01:36      1.22    3.09    1.00
  YS02001644YS02001647 CONDUIT   1129.55     0  01:35      1.71    0.66    1.00
  YS02001647YS02001649 CONDUIT   1129.08     0  01:35      2.15    0.60    1.00
  YS02001649YS02001757 CONDUIT   1293.09     0  01:35      2.33    0.78    1.00
  YS02001652YS02001649 CONDUIT    175.41     0  02:12      1.11    0.09    1.00
  YS02001655YS02001652 CONDUIT    174.49     0  02:12      1.48    0.08    1.00
  YS02001658YS02001655 CONDUIT    247.82     0  02:12      1.67    0.11    0.97
  YS02001661YS02001658 CONDUIT    356.73     0  02:22      1.80    0.14    0.76
  YS02001664YS02001661 CONDUIT    172.43     0  01:32      1.52    0.05    0.40
  YS02001745YS02001748 CONDUIT    201.74     0  02:14      1.61    0.08    0.69
  YS02001748YS02001751 CONDUIT    148.48     0  02:13      1.35    0.07    0.98
  YS02001751YS02001754 CONDUIT    111.76     0  02:17      1.35    0.05    1.00
  YS02001754YS02001757 CONDUIT    110.94     0  02:17      0.82    0.04    1.00
  YS02001757CaochengTiaoxuchi CONDUIT   1749.75     0  01:33      2.55    0.76    1.00
  YS02001759YS02001757 CONDUIT    363.05     0  01:32      1.16    0.26    1.00
  YS02001762YS02001759 CONDUIT    216.97     0  01:34      0.70    0.25    1.00
  YS02001765YS02001762 CONDUIT    215.39     0  01:33      0.81    0.20    1.00
  YS02001767YS02001765 CONDUIT    217.93     0  01:33      0.86    0.27    1.00
  YS02001770YS02001767 CONDUIT    216.45     0  01:31      0.77    0.86    1.00
  YS02001774YS02001770 CONDUIT     43.76     0  01:55      0.54    0.03    1.00
  YS02001779YS02001774 CONDUIT     44.60     0  03:58      0.16    0.02    1.00
  YS02001783YS02001784 CONDUIT    674.67     0  01:30      1.57    0.93    1.00
  YS02001784YS02001785 CONDUIT    676.17     0  01:30      1.68    1.57    1.00
  YS02001786YS02001788 CONDUIT    677.11     0  01:30      2.13    1.30    1.00
  YS02001788YS02001790 CONDUIT    678.88     0  01:30      2.21    0.50    1.00
  YS02001790YS02001791 CONDUIT    679.21     0  01:30      2.59    0.74    1.00
  YS02001791YS02001793 CONDUIT    717.95     0  01:27      5.24    0.31    1.00
  YS02001793JiankangQianchi CONDUIT    848.26     0  01:26      2.45    0.07    1.00
  YS02001882YS02001884 CONDUIT     36.33     0  01:58      0.29    0.04    0.65
  YS02001884YS02001887 CONDUIT     52.90     0  01:15      0.23    0.07    0.74
  YS02001887YS02001890 CONDUIT    181.58     0  01:32      0.27    0.31    0.80
  YS02001890YS02001895 CONDUIT    183.10     0  01:32      0.31    0.09    0.72
  YS02001895YS02001898 CONDUIT    186.07     0  01:33      0.54    0.32    0.58
  YS02001898YS02001901 CONDUIT    191.54     0  01:32      0.47    0.12    0.66
  YS02001901YS02001904 CONDUIT    172.44     0  01:32      0.49    0.27    0.72
  YS02001904YS02001907 CONDUIT    196.43     0  02:08      0.28    0.07    0.86
  YS02001907YS02006553 CONDUIT    465.74     0  01:31      0.52    0.55    1.00
  YS02001910YS02001907 CONDUIT    322.06     0  01:34      0.49    0.18    0.92
  YS02001915YS02001910 CONDUIT    342.43     0  01:33      0.93    0.17    0.72
  YS02001918YS02001915 CONDUIT    122.56     0  01:32      0.44    0.07    0.44
  YS02001920YS02001918 CONDUIT    112.61     0  01:32      0.65    0.11    0.31
  YS02001923YS02001920 CONDUIT    101.97     0  01:33      0.70    0.05    0.25
  YS02001926YS02001923 CONDUIT    101.94     0  01:33      0.78    0.15    0.22
  YS02001929YS02001926 CONDUIT    101.94     0  01:32      0.84    0.05    0.21
  YS02006553YS02006556 CONDUIT    464.77     0  01:31      0.60    0.40    0.99
  YS02006556YS02006558 CONDUIT    479.74     0  01:31      0.61    0.38    1.00
  YS02006558YS02006561 CONDUIT    688.69     0  01:32      3.15    1.52    0.85
  YS02006561YS02001783 CONDUIT    715.23     0  01:29      2.09    0.37    0.80
  YS02163301YS02001633 CONDUIT    747.49     0  01:37      0.95    0.70    1.00
  YS02163601YS02164001 CONDUIT    954.95     0  01:36      1.22    0.85    1.00
  YS02164001YS02001641 CONDUIT    954.98     0  01:36      1.22    1.30    1.00
  CC-R1                PUMP       683.00     0  00:00              1.00
  CC-R2                PUMP       683.00     0  00:00              1.00
  CC-S1                PUMP       200.00     0  00:00              1.00
  CC-S2                PUMP       200.00     0  00:00              1.00
  JK-R1                PUMP      1000.00     0  00:00              1.00
  JK-R2                PUMP      1000.00     0  00:00              1.00
  JK-S                 PUMP       300.00     0  00:00              1.00
  XR-1                 PUMP        95.00     0  00:00              1.00
  XR-2                 PUMP        95.00     0  00:00              1.00
  XR-3                 PUMP        95.00     0  00:00              1.00
  XR-4                 PUMP        95.00     0  00:00              1.00
  
  
  ***************************
  Flow Classification Summary
  ***************************
  
  -------------------------------------------------------------------------------------
                      Adjusted    ---------- Fraction of Time in Flow Class ---------- 
                       /Actual         Up    Down  Sub   Sup   Up    Down  Norm  Inlet 
  Conduit               Length    Dry  Dry   Dry   Crit  Crit  Crit  Crit  Ltd   Ctrl  
  -------------------------------------------------------------------------------------
  1                       1.00   0.00  0.00  0.00  0.00  1.00  0.00  0.00  0.17  0.00
  WS02001211WS02001212    1.00   0.00  0.00  0.00  1.00  0.00  0.00  0.00  0.00  0.00
  WS02001212WS02001213    1.00   0.00  0.00  0.00  0.41  0.00  0.59  0.00  0.00  0.00
  WS02001213WS02003059    1.00   0.00  0.00  0.00  0.99  0.00  0.00  0.00  0.00  0.00
  WS02003059WS02003060    1.00   0.00  0.00  0.00  1.00  0.00  0.00  0.00  0.00  0.00
  WS02003060WS02003069    1.00   0.00  0.00  0.00  0.99  0.01  0.00  0.00  0.00  0.00
  WS02003066WSF200        1.00   0.02  0.10  0.00  0.00  0.88  0.00  0.00  0.87  0.00
  WS02003067WS02003066    1.00   0.10  0.02  0.00  0.89  0.00  0.00  0.00  0.00  0.00
  WS02003069WS02003072    1.00   0.00  0.00  0.00  0.99  0.01  0.00  0.00  0.00  0.00
  WS02003072WS02003073    1.00   0.00  0.00  0.00  0.00  0.00  0.00  1.00  0.00  0.00
  WS02004138WS02004139    1.00   0.00  0.00  0.00  0.99  0.01  0.00  0.00  1.00  0.00
  WS02004139WS02001211    1.00   0.00  0.00  0.00  1.00  0.00  0.00  0.00  0.00  0.00
  WS02004401WS02004402    1.00   0.02  0.00  0.00  0.98  0.00  0.00  0.00  0.00  0.00
  WS02004402WS02004403    1.00   0.02  0.00  0.00  0.98  0.00  0.00  0.00  0.00  0.00
  WS02004403WS02004404    1.00   0.00  0.03  0.00  0.97  0.00  0.00  0.00  0.00  0.00
  WS02004404WS02004405    1.00   0.00  0.00  0.00  1.00  0.00  0.00  0.00  0.00  0.00
  WS02004405WS02004406    1.00   0.00  0.00  0.00  1.00  0.00  0.00  0.00  0.00  0.00
  WS02004406WS02004407    1.00   0.00  0.05  0.00  0.95  0.00  0.00  0.00  0.00  0.00
  WS02004407WS02004409    1.00   0.05  0.00  0.00  0.94  0.01  0.00  0.00  0.94  0.00
  WS02004409WS02004410    1.00   0.05  0.00  0.00  0.95  0.00  0.00  0.00  0.02  0.00
  WS02004410WS02004411    1.00   0.05  0.00  0.00  0.95  0.00  0.00  0.00  0.00  0.00
  WS02004411WS02004412    1.00   0.05  0.00  0.00  0.95  0.00  0.00  0.00  0.00  0.00
  WS02004412WS02004413    1.00   0.05  0.00  0.00  0.94  0.00  0.00  0.00  0.01  0.00
  WS02004413WS02003067    1.00   0.06  0.04  0.00  0.00  0.00  0.90  0.00  0.00  0.00
  WS02006109WS02006110    1.00   0.00  0.01  0.00  0.98  0.00  0.01  0.00  0.00  0.00
  WS02006110WS02006113    1.00   0.01  0.01  0.00  0.98  0.00  0.00  0.00  0.00  0.00
  WS02006111WS02006112    1.00   0.02  0.00  0.00  0.98  0.00  0.00  0.00  0.98  0.00
  WS02006112WS02006115    1.00   0.02  0.00  0.00  0.97  0.00  0.00  0.00  0.00  0.00
  WS02006113WS02006111    1.00   0.02  0.00  0.00  0.00  0.98  0.00  0.00  0.12  0.00
  WS02006115WS02006116    1.00   0.02  0.00  0.00  0.97  0.00  0.00  0.01  0.00  0.00
  WS02006116WS02004401    1.00   0.02  0.00  0.00  0.98  0.00  0.00  0.00  0.00  0.00
  WS02006228WS02006109    1.00   0.00  0.00  0.00  1.00  0.00  0.00  0.00  0.00  0.00
  WS02006229WS02006228    1.00   0.00  0.00  0.00  0.99  0.00  0.00  0.01  0.00  0.00
  WS02006230WS02006229    1.00   0.00  0.00  0.00  0.99  0.00  0.00  0.01  0.00  0.00
  WS02006231WS02006230    1.00   0.00  0.00  0.00  0.27  0.00  0.73  0.00  0.00  0.00
  WS02006232WS02006231    1.00   0.00  0.00  0.00  0.99  0.00  0.01  0.00  0.00  0.00
  WS02006234WS02006232    1.00   0.00  0.00  0.00  1.00  0.00  0.00  0.00  0.48  0.00
  WS02006235WS02006234    1.00   0.00  0.00  0.00  0.48  0.00  0.52  0.00  0.00  0.00
  WS02006238WS02006235    1.00   0.00  0.00  0.00  1.00  0.00  0.00  0.00  0.00  0.00
  WS02006239WS02006238    1.00   0.00  0.00  0.00  1.00  0.00  0.00  0.00  0.57  0.00
  WS02006240WS02006239    1.00   0.00  0.00  0.00  0.39  0.00  0.00  0.60  0.01  0.00
  WS02006242WS02006240    1.00   0.00  0.00  0.00  0.99  0.00  0.01  0.00  0.00  0.00
  WS02006243WS02006242    1.00   0.00  0.00  0.00  0.99  0.00  0.00  0.01  0.66  0.00
  WS02006245WS02006243    1.00   0.00  0.00  0.00  0.45  0.00  0.00  0.55  0.00  0.00
  WS02006247WS02006245    1.00   0.00  0.00  0.00  0.99  0.00  0.00  0.01  0.00  0.00
  WS02006248WS02006247    1.00   0.00  0.00  0.00  0.99  0.00  0.00  0.01  0.12  0.00
  WS02006249WS02006248    1.00   0.00  0.00  0.00  0.34  0.00  0.66  0.00  0.00  0.00
  WS02006251WS02006249    1.00   0.00  0.00  0.00  1.00  0.00  0.00  0.00  0.67  0.00
  WS02006252WS02006251    1.00   0.01  0.69  0.00  0.00  0.00  0.30  0.00  0.00  0.00
  WS02006256WS02006235    1.00   0.00  0.00  0.00  1.00  0.00  0.00  0.00  0.00  0.00
  WSF200WS02003060        1.00   0.00  0.02  0.00  0.98  0.00  0.00  0.00  0.63  0.00
  YS02001580YS02001583    1.00   0.19  0.56  0.00  0.24  0.00  0.00  0.00  0.68  0.00
  YS02001583YS02001586    1.00   0.47  0.23  0.00  0.29  0.00  0.01  0.00  0.68  0.00
  YS02001586YS02001590    1.00   0.13  0.00  0.00  0.42  0.03  0.00  0.43  0.26  0.00
  YS02001590YS02001593    1.00   0.13  0.00  0.00  0.21  0.00  0.66  0.00  0.00  0.00
  YS02001593YS02001596    1.00   0.13  0.00  0.00  0.84  0.00  0.00  0.03  0.62  0.00
  YS02001596YS02001600    1.00   0.13  0.00  0.00  0.85  0.00  0.00  0.01  0.01  0.00
  YS02001600YS02001601    1.00   0.13  0.00  0.00  0.87  0.00  0.00  0.00  0.01  0.00
  YS02001601YS02001602    1.00   0.13  0.00  0.00  0.87  0.00  0.00  0.00  0.00  0.00
  YS02001602YS02001605    1.00   0.13  0.00  0.00  0.87  0.00  0.00  0.00  0.00  0.00
  YS02001605YS02001607    1.00   0.13  0.00  0.00  0.87  0.00  0.00  0.00  0.00  0.00
  YS02001607YS02001610    1.00   0.13  0.00  0.00  0.87  0.00  0.00  0.00  0.00  0.00
  YS02001610YS02001613    1.00   0.13  0.00  0.00  0.87  0.00  0.00  0.00  0.00  0.00
  YS02001613YS02001616    1.00   0.13  0.00  0.00  0.87  0.00  0.00  0.00  0.00  0.00
  YS02001616YS02001619    1.00   0.13  0.00  0.00  0.87  0.00  0.00  0.00  0.00  0.00
  YS02001619YS02001622    1.00   0.13  0.00  0.00  0.87  0.00  0.00  0.00  0.00  0.00
  YS02001622YS02001625    1.00   0.13  0.00  0.00  0.87  0.01  0.00  0.00  0.01  0.00
  YS02001625YS02001629    1.00   0.13  0.02  0.00  0.84  0.00  0.01  0.00  0.00  0.00
  YS02001629YS02163301    1.00   0.13  0.00  0.00  0.86  0.00  0.00  0.00  0.00  0.00
  YS02001633YS02163601    1.00   0.00  0.01  0.00  0.99  0.00  0.00  0.00  0.13  0.00
  YS02001641YS02001644    1.00   0.00  0.01  0.00  0.99  0.00  0.00  0.00  0.00  0.00
  YS02001644YS02001647    1.00   0.00  0.14  0.00  0.86  0.00  0.00  0.00  0.00  0.00
  YS02001647YS02001649    1.00   0.00  0.14  0.00  0.86  0.00  0.00  0.00  0.01  0.00
  YS02001649YS02001757    1.00   0.00  0.00  0.00  1.00  0.00  0.00  0.00  0.14  0.00
  YS02001652YS02001649    1.00   0.00  0.00  0.00  0.99  0.01  0.00  0.00  0.13  0.00
  YS02001655YS02001652    1.00   0.00  0.00  0.00  0.84  0.00  0.00  0.16  0.04  0.00
  YS02001658YS02001655    1.00   0.00  0.13  0.00  0.78  0.09  0.00  0.00  0.05  0.00
  YS02001661YS02001658    1.00   0.13  0.00  0.00  0.76  0.11  0.00  0.00  0.09  0.00
  YS02001664YS02001661    1.00   0.13  0.00  0.00  0.75  0.13  0.00  0.00  0.87  0.00
  YS02001745YS02001748    1.00   0.00  0.00  0.00  0.75  0.01  0.00  0.24  0.03  0.00
  YS02001748YS02001751    1.00   0.00  0.00  0.00  0.91  0.09  0.00  0.00  0.17  0.00
  YS02001751YS02001754    1.00   0.00  0.00  0.00  0.82  0.01  0.00  0.17  0.04  0.00
  YS02001754YS02001757    1.00   0.00  0.00  0.00  0.99  0.01  0.00  0.00  0.16  0.00
  YS02001757CaochengTiaoxuchi    1.00   0.00  0.00  0.00  0.98  0.02  0.00  0.00  0.15  0.00
  YS02001759YS02001757    1.00   0.00  0.00  0.00  0.99  0.01  0.00  0.00  0.06  0.00
  YS02001762YS02001759    1.00   0.00  0.00  0.00  1.00  0.00  0.00  0.00  0.01  0.00
  YS02001765YS02001762    1.00   0.00  0.00  0.00  1.00  0.00  0.00  0.00  0.12  0.00
  YS02001767YS02001765    1.00   0.00  0.00  0.00  1.00  0.00  0.00  0.00  0.00  0.00
  YS02001770YS02001767    1.00   0.00  0.00  0.00  1.00  0.00  0.00  0.00  0.00  0.00
  YS02001774YS02001770    1.00   0.00  0.13  0.00  0.87  0.00  0.00  0.00  0.01  0.00
  YS02001779YS02001774    1.00   0.00  0.00  0.00  1.00  0.00  0.00  0.00  0.14  0.00
  YS02001783YS02001784    1.00   0.00  0.14  0.00  0.86  0.00  0.00  0.00  0.00  0.00
  YS02001784YS02001785    1.00   0.00  0.00  0.00  1.00  0.00  0.00  0.00  0.13  0.00
  YS02001786YS02001788    1.00   0.00  0.00  0.00  0.97  0.03  0.00  0.00  0.00  0.00
  YS02001788YS02001790    1.00   0.00  0.00  0.00  0.97  0.03  0.00  0.00  0.15  0.00
  YS02001790YS02001791    1.00   0.00  0.00  0.00  0.83  0.17  0.00  0.00  0.02  0.00
  YS02001791YS02001793    1.00   0.00  0.00  0.00  0.82  0.18  0.00  0.00  0.00  0.00
  YS02001793JiankangQianchi    1.00   0.00  0.00  0.00  0.93  0.07  0.00  0.00  0.15  0.00
  YS02001882YS02001884    1.00   0.13  0.00  0.00  0.86  0.00  0.00  0.00  0.00  0.00
  YS02001884YS02001887    1.00   0.06  0.05  0.00  0.89  0.00  0.00  0.00  0.00  0.00
  YS02001887YS02001890    1.00   0.00  0.00  0.00  0.97  0.00  0.03  0.00  0.00  0.00
  YS02001890YS02001895    1.00   0.00  0.13  0.00  0.86  0.00  0.00  0.00  0.00  0.00
  YS02001895YS02001898    1.00   0.14  0.00  0.00  0.85  0.00  0.01  0.00  0.00  0.00
  YS02001898YS02001901    1.00   0.14  0.00  0.00  0.86  0.00  0.00  0.00  0.00  0.00
  YS02001901YS02001904    1.00   0.14  0.00  0.00  0.86  0.00  0.00  0.00  0.00  0.00
  YS02001904YS02001907    1.00   0.00  0.14  0.00  0.86  0.00  0.00  0.00  0.00  0.00
  YS02001907YS02006553    1.00   0.00  0.02  0.00  0.98  0.00  0.00  0.00  0.00  0.00
  YS02001910YS02001907    1.00   0.00  0.00  0.00  0.97  0.00  0.00  0.03  0.11  0.00
  YS02001915YS02001910    1.00   0.00  0.00  0.00  0.97  0.03  0.00  0.00  0.11  0.00
  YS02001918YS02001915    1.00   0.00  0.01  0.00  0.98  0.02  0.00  0.00  0.71  0.00
  YS02001920YS02001918    1.00   0.00  0.01  0.00  0.99  0.00  0.00  0.00  0.00  0.00
  YS02001923YS02001920    1.00   0.00  0.00  0.00  1.00  0.00  0.00  0.00  1.00  0.00
  YS02001926YS02001923    1.00   0.00  0.07  0.00  0.00  0.00  0.93  0.00  0.00  0.00
  YS02001929YS02001926    1.00   0.00  0.13  0.00  0.87  0.00  0.00  0.00  0.87  0.00
  YS02006553YS02006556    1.00   0.01  0.00  0.00  0.99  0.00  0.00  0.00  0.03  0.00
  YS02006556YS02006558    1.00   0.00  0.00  0.00  1.00  0.00  0.00  0.00  0.00  0.00
  YS02006558YS02006561    1.00   0.14  0.00  0.00  0.00  0.86  0.00  0.00  0.19  0.00
  YS02006561YS02001783    1.00   0.14  0.00  0.00  0.81  0.04  0.00  0.00  0.78  0.00
  YS02163301YS02001633    1.00   0.00  0.13  0.00  0.87  0.00  0.00  0.00  0.00  0.00
  YS02163601YS02164001    1.00   0.00  0.08  0.00  0.92  0.00  0.00  0.00  0.00  0.00
  YS02164001YS02001641    1.00   0.01  0.07  0.00  0.92  0.00  0.00  0.00  0.05  0.00
  
  
  *************************
  Conduit Surcharge Summary
  *************************
  
  ----------------------------------------------------------------------------
                                                           Hours        Hours 
                         --------- Hours Full --------   Above Full   Capacity
  Conduit                Both Ends  Upstream  Dnstream   Normal Flow   Limited
  ----------------------------------------------------------------------------
  WS02003072WS02003073        0.01      0.01      0.01      2.72         0.01
  WS02004404WS02004405        0.01      0.01      0.01      2.58         0.01
  WS02006109WS02006110        0.01      0.01      2.03      0.01         0.01
  WS02006110WS02006113        0.01      0.01      2.00      0.01         0.01
  WS02006111WS02006112        0.01      0.01      2.14      0.01         0.01
  WS02006228WS02006109        1.97      2.03      1.97      2.32         1.97
  WS02006229WS02006228        1.96      1.97      1.96      2.21         1.96
  WS02006230WS02006229        2.10      2.17      2.10      2.85         2.10
  WS02006231WS02006230        0.01      0.01      0.01      2.70         0.01
  WS02006232WS02006231        0.01      0.01      2.03      0.01         0.01
  WS02006234WS02006232        1.93      1.93      2.03      0.01         0.01
  WS02006235WS02006234        0.01      0.01      1.97      2.62         0.01
  WS02006238WS02006235        1.99      1.99      2.04      0.01         0.01
  WS02006239WS02006238        2.00      2.03      2.00      2.25         2.00
  WS02006240WS02006239        1.98      2.00      1.98      2.27         1.98
  WS02006242WS02006240        1.99      1.99      2.12      2.34         0.01
  WS02006243WS02006242        2.01      2.01      2.08      0.01         0.01
  WS02006245WS02006243        2.00      2.01      2.00      2.32         2.00
  WS02006247WS02006245        2.00      2.03      2.00      2.42         2.00
  WS02006248WS02006247        2.00      2.00      2.02      0.01         0.01
  WS02006249WS02006248        2.00      2.00      2.01      2.41         0.01
  WS02006251WS02006249        2.01      2.02      2.01      2.39         2.01
  WS02006252WS02006251        2.42      2.42      2.42      2.42         0.01
  WS02006256WS02006235        2.65      2.66      3.42      0.02         0.01
  YS02001583YS02001586        0.01      0.01      0.51      0.01         0.01
  YS02001586YS02001590        0.53      0.53      1.36      0.01         0.01
  YS02001590YS02001593        1.38      1.38      1.42      0.89         0.01
  YS02001593YS02001596        1.41      1.41      1.66      0.01         0.01
  YS02001596YS02001600        1.74      1.74      2.02      0.01         0.01
  YS02001600YS02001601        6.63      6.63      6.80      0.01         0.01
  YS02001601YS02001602        6.77      6.77      6.81      1.67         0.01
  YS02001602YS02001605        6.75      6.75      6.77      2.38         0.13
  YS02001605YS02001607        6.72      6.75      6.72      1.89         1.79
  YS02001607YS02001610        1.18      1.18      1.49      0.01         0.01
  YS02001610YS02001613        1.20      1.20      1.49      0.01         0.01
  YS02001613YS02001616        1.08      1.08      1.20      0.01         0.01
  YS02001616YS02001619        1.06      1.06      1.08      0.01         0.01
  YS02001619YS02001622        1.06      1.06      1.07      0.74         0.23
  YS02001622YS02001625        1.07      1.07      6.55      0.01         0.01
  YS02001625YS02001629        1.02      1.02      6.55      0.01         0.01
  YS02001629YS02163301        6.54      6.54      6.55      0.01         0.02
  YS02001633YS02163601        6.57      6.57      6.59      0.04         0.07
  YS02001641YS02001644        6.10      6.26      6.10      1.84         1.23
  YS02001644YS02001647        5.98      5.98      6.10      0.01         0.01
  YS02001647YS02001649        5.98      5.98      6.06      0.01         0.01
  YS02001649YS02001757        6.06      6.06      6.10      0.01         0.01
  YS02001652YS02001649        5.95      5.95      6.06      0.01         0.01
  YS02001655YS02001652        0.77      0.77      5.94      0.01         0.01
  YS02001658YS02001655        0.01      0.01      0.77      0.01         0.01
  YS02001748YS02001751        0.01      0.01      0.66      0.01         0.01
  YS02001751YS02001754        0.66      0.66      5.87      0.01         0.01
  YS02001754YS02001757        5.91      5.91      6.10      0.01         0.01
  YS02001757CaochengTiaoxuchi        6.10      6.10      6.44      0.01         0.01
  YS02001759YS02001757        6.04      6.04      6.10      0.01         0.01
  YS02001762YS02001759        6.02      6.02      6.04      0.01         0.01
  YS02001765YS02001762        6.00      6.00      6.02      0.01         0.01
  YS02001767YS02001765        5.98      5.98      6.00      0.01         0.01
  YS02001770YS02001767        5.97      5.97      5.98      0.01         0.25
  YS02001774YS02001770        5.96      5.96      6.01      0.01         0.01
  YS02001779YS02001774        5.85      5.85      6.01      0.01         0.01
  YS02001783YS02001784        0.34      0.34      0.66      0.01         0.01
  YS02001784YS02001785        0.38      0.66      0.38      1.24         0.37
  YS02001786YS02001788        0.25      0.38      0.25      0.85         0.23
  YS02001788YS02001790        0.25      0.25      6.53      0.01         0.01
  YS02001790YS02001791        6.53      6.53      6.53      0.01         0.01
  YS02001791YS02001793        6.53      6.53      6.55      0.01         0.01
  YS02001793JiankangQianchi        6.55      6.55      6.69      0.01         0.01
  YS02001904YS02001907        0.01      0.01      0.83      0.01         0.01
  YS02001907YS02006553        1.26      1.26      1.38      0.01         0.01
  YS02001910YS02001907        0.01      0.01      0.61      0.01         0.01
  YS02006553YS02006556        0.01      0.01      0.82      0.01         0.01
  YS02006556YS02006558        0.05      0.05      0.87      0.01         0.01
  YS02006558YS02006561        0.01      0.01      0.01      1.10         0.01
  YS02006561YS02001783        0.01      0.01      0.34      0.01         0.01
  YS02163301YS02001633        6.55      6.55      6.58      0.01         0.01
  YS02163601YS02164001        6.47      6.47      6.59      0.01         0.01
  YS02164001YS02001641        6.26      6.47      6.26      1.13         0.72
  
  
  ***************
  Pumping Summary
  ***************
  
  ---------------------------------------------------------------------------------------------------------
                                                  Min       Avg       Max     Total     Power    % Time Off
                        Percent   Number of      Flow      Flow      Flow    Volume     Usage    Pump Curve
  Pump                 Utilized   Start-Ups       LPS       LPS       LPS  10^6 ltr     Kw-hr    Low   High
  ---------------------------------------------------------------------------------------------------------
  CC-R1                    1.06           1      0.00    683.00    683.00     0.208      3.51    0.0  100.0
  CC-R2                    1.06           1      0.00    683.00    683.00     0.208      3.51    0.0  100.0
  CC-S1                   30.30           3      0.00    200.00    200.00     1.745      7.51    0.0   51.6
  CC-S2                   30.30           3      0.00    200.00    200.00     1.745      7.51    0.0   51.6
  JK-R1                    0.97           2      0.00    347.46   1000.00     0.078      0.47    0.0    0.0
  JK-R2                    0.97           2      0.00    347.46   1000.00     0.078      0.47    0.0    0.0
  JK-S                     0.97           2      0.00    104.30    300.00     0.023      0.44    0.0    0.0
  XR-1                   100.00           1      0.00     95.00     95.00     2.736     68.18    0.0    0.0
  XR-2                   100.00           1      0.00     95.00     95.00     2.736     68.18    0.0    0.0
  XR-3                   100.00           1      0.00     95.00     95.00     2.736     68.18    0.0    0.0
  XR-4                   100.00           1      0.00     95.00     95.00     2.736     68.18    0.0    0.0
  

  Analysis begun on:  Wed Nov  5 16:18:48 2025
  Analysis ended on:  Wed Nov  5 16:18:51 2025
  Total elapsed time: 00:00:03