
  EPA STORM WATER MANAGEMENT MODEL - VERSION 5.2 (Build 5.2.4)
  PYSWMM TOOLKIT API - VERSION v1.0 (2023-11-27)
  ------------------------------------------------------------

  WARNING 04: minimum elevation drop used for Conduit WS02004404WS02004405
  WARNING 03: negative offset ignored for Link YS02001904YS02001907
  
  ****************
  Analysis Options
  ****************
  Flow Units ............... LPS
  Process Models:
    Rainfall/Runoff ........ YES
    RDII ................... NO
    Snowmelt ............... NO
    Groundwater ............ NO
    Flow Routing ........... YES
    Ponding Allowed ........ NO
    Water Quality .......... NO
  Infiltration Method ...... HORTON
  Flow Routing Method ...... DYNWAVE
  Surcharge Method ......... EXTRAN
  Starting Date ............ 08/28/2015 08:00:00
  Ending Date .............. 08/28/2015 16:00:00
  Antecedent Dry Days ...... 8.0
  Report Time Step ......... 00:01:00
  Wet Time Step ............ 00:01:00
  Dry Time Step ............ 00:01:00
  Routing Time Step ........ 30.00 sec
  Variable Time Step ....... YES
  Maximum Trials ........... 8
  Number of Threads ........ 4
  Head Tolerance ........... 0.001500 m
  
  
  **************************        Volume         Depth
  Runoff Quantity Continuity     hectare-m            mm
  **************************     ---------       -------
  Initial LID Storage ......         0.049         1.488
  Total Precipitation ......         1.705        51.413
  Evaporation Loss .........         0.000         0.000
  Infiltration Loss ........         0.074         2.238
  Surface Runoff ...........         1.246        37.573
  Final Storage ............         0.435        13.117
  Continuity Error (%) .....        -0.052
  
  
  **************************        Volume        Volume
  Flow Routing Continuity        hectare-m      10^6 ltr
  **************************     ---------     ---------
  Dry Weather Inflow .......         0.602         6.020
  Wet Weather Inflow .......         1.246        12.464
  Groundwater Inflow .......         0.000         0.000
  RDII Inflow ..............         0.000         0.000
  External Inflow ..........         0.105         1.045
  External Outflow .........         1.591        15.914
  Flooding Loss ............         0.402         4.023
  Evaporation Loss .........         0.000         0.000
  Exfiltration Loss ........         0.000         0.000
  Initial Stored Volume ....         0.303         3.031
  Final Stored Volume ......         0.725         7.252
  Continuity Error (%) .....       -20.519
  
  
  *************************
  Highest Continuity Errors
  *************************
  Node YS02001774 (18.34%)
  Node YS02001583 (-15.39%)
  Node YS02001884 (4.44%)
  Node YS02001754 (3.71%)
  Node YS02001767 (3.28%)
  
  
  ***************************
  Time-Step Critical Elements
  ***************************
  Link WS02006238WS02006235 (25.34%)
  Link WS02006235WS02006234 (17.64%)
  Link WS02001212WS02001213 (17.04%)
  Link WS02003066WSF200 (12.49%)
  Link WS02006252WS02006251 (9.80%)
  
  
  ********************************
  Highest Flow Instability Indexes
  ********************************
  Link WS02006113WS02006111 (43)
  Link WS02006256WS02006235 (37)
  Link WS02006238WS02006235 (35)
  Link WS02006252WS02006251 (29)
  Link WS02006239WS02006238 (27)
  
  
  *********************************
  Most Frequent Nonconverging Nodes
  *********************************
  Node CC-1 (15.32%)
  Node CC-2 (15.32%)
  Node JK-1 (15.32%)
  Node JK-2 (15.32%)
  Node WSC (15.32%)
  
  
  *************************
  Routing Time Step Summary
  *************************
  Minimum Time Step           :     0.00 sec
  Average Time Step           :     3.17 sec
  Maximum Time Step           :     6.46 sec
  % of Time in Steady State   :     0.00
  Average Iterations per Step :     3.66
  % of Steps Not Converging   :    15.32
  Time Step Frequencies       :
     30.000 - 13.228 sec      :     0.00 %
     13.228 -  5.833 sec      :    19.39 %
      5.833 -  2.572 sec      :    43.32 %
      2.572 -  1.134 sec      :    21.93 %
      1.134 -  0.500 sec      :    15.37 %
  
  
  ***************************
  Subcatchment Runoff Summary
  ***************************
  
  ------------------------------------------------------------------------------------------------------------------------------
                            Total      Total      Total      Total     Imperv       Perv      Total       Total     Peak  Runoff
                           Precip      Runon       Evap      Infil     Runoff     Runoff     Runoff      Runoff   Runoff   Coeff
  Subcatchment                 mm         mm         mm         mm         mm         mm         mm    10^6 ltr      LPS
  ------------------------------------------------------------------------------------------------------------------------------
  sub60                     51.41       0.00       0.00       1.35      33.99       3.41      37.40        0.49   322.43   0.727
  sub61                     51.41       0.00       0.00       2.07      33.96       5.07      39.04        0.72   466.11   0.759
  sub62                     51.41       0.00       0.00       0.92      36.20       2.32      38.52        1.06   637.38   0.749
  sub63                     51.41       0.00       0.00       3.77      29.09       8.44      37.53        0.85   510.23   0.730
  sub64                     51.41       0.00       0.00       1.81      33.12       4.20      37.31        0.90   510.86   0.726
  sub65                     51.41       0.00       0.00       1.66      35.74       3.83      39.57        1.09   592.95   0.770
  sub66                     51.41       0.00       0.00       4.35      28.12       7.47      35.59        1.66   743.38   0.692
  sub67                     51.41       0.00       0.00       0.92      37.12       2.40      39.52        0.74   505.15   0.769
  sub68                     51.41       0.00       0.00       1.59      32.78       3.89      36.67        1.01   632.87   0.713
  sub69                     51.41       0.00       0.00       1.43      34.55       4.68      39.23        1.45   773.46   0.763
  sub70                     51.41       0.00       0.00       4.74      27.67       9.58      37.25        1.08   431.39   0.725
  sub71                     51.41       0.00       0.00       0.85      32.88       2.09      34.98        0.91   521.66   0.680
  sub72                     51.41       0.00       0.00       0.81      35.51       1.95      37.46        0.52   265.06   0.729
  

  ***********************
  LID Performance Summary
  ***********************

  --------------------------------------------------------------------------------------------------------------------
                                         Total      Evap     Infil   Surface    Drain    Initial     Final  Continuity
                                        Inflow      Loss      Loss   Outflow   Outflow   Storage   Storage       Error
  Subcatchment      LID Control             mm        mm        mm        mm        mm        mm        mm           %
  --------------------------------------------------------------------------------------------------------------------
  sub60             GreenRoof            51.41      0.00      0.00      0.00      0.00      7.05     58.55       -0.15
  sub61             GreenRoof            51.41      0.00      0.00      0.00      0.00      7.05     58.55       -0.15
  sub62             GreenRoof            51.41      0.00      0.00      0.00      0.00      7.05     58.55       -0.15
  sub63             GreenRoof            51.41      0.00      0.00      0.00      0.00      7.05     58.55       -0.15
  sub64             GreenRoof            51.41      0.00      0.00      0.00      0.00      7.05     58.55       -0.15
  sub65             GreenRoof            51.41      0.00      0.00      0.00      0.00      7.05     58.55       -0.15
  sub66             GreenRoof            51.41      0.00      0.00      0.00      0.00      7.05     58.55       -0.15
  sub67             GreenRoof            51.41      0.00      0.00      0.00      0.00      7.05     58.55       -0.15
  sub68             GreenRoof            51.41      0.00      0.00      0.00      0.00      7.05     58.55       -0.15
  sub69             GreenRoof            51.41      0.00      0.00      0.00      0.00      7.05     58.55       -0.15
  sub70             GreenRoof            51.41      0.00      0.00      0.00      0.00      7.05     58.55       -0.15
  sub71             GreenRoof            51.41      0.00      0.00      0.00      0.00      7.05     58.55       -0.15
  sub72             GreenRoof            51.41      0.00      0.00      0.00      0.00      7.05     58.55       -0.15
  
  ******************
  Node Depth Summary
  ******************
  
  ---------------------------------------------------------------------------------
                                 Average  Maximum  Maximum  Time of Max    Reported
                                   Depth    Depth      HGL   Occurrence   Max Depth
  Node                 Type       Meters   Meters   Meters  days hr:min      Meters
  ---------------------------------------------------------------------------------
  WS02001211           JUNCTION     0.76     0.78     5.62     0  02:46        0.78
  WS02001212           JUNCTION     0.46     0.49     5.55     0  02:23        0.49
  WS02001213           JUNCTION     0.68     0.73     5.49     0  02:23        0.73
  WS02003059           JUNCTION     0.73     0.78     5.47     0  02:22        0.78
  WS02003060           JUNCTION     0.38     0.47     5.41     0  02:22        0.47
  WS02003066           JUNCTION     0.16     0.27     5.82     0  02:21        0.27
  WS02003067           JUNCTION     0.43     0.65     5.97     0  02:21        0.65
  WS02003069           JUNCTION     0.42     0.54     5.12     0  02:22        0.54
  WS02003072           JUNCTION     0.49     0.60     4.97     0  02:23        0.60
  WS02003073           JUNCTION     0.29     0.37     4.43     0  02:45        0.37
  WS02004138           JUNCTION     0.19     0.20     7.45     0  00:00        0.19
  WS02004139           JUNCTION     0.71     0.73     5.64     0  02:25        0.73
  WS02004401           JUNCTION     0.51     0.75     6.75     0  02:18        0.75
  WS02004402           JUNCTION     0.55     0.78     6.74     0  02:18        0.78
  WS02004403           JUNCTION     0.57     0.80     6.73     0  02:19        0.80
  WS02004404           JUNCTION     0.65     0.88     6.73     0  02:19        0.88
  WS02004405           JUNCTION     0.64     0.88     6.73     0  02:19        0.87
  WS02004406           JUNCTION     0.66     0.88     6.71     0  02:19        0.88
  WS02004407           JUNCTION     0.14     0.26     6.57     0  02:19        0.26
  WS02004409           JUNCTION     0.31     0.58     6.35     0  02:20        0.57
  WS02004410           JUNCTION     0.33     0.59     6.31     0  02:20        0.59
  WS02004411           JUNCTION     0.36     0.61     6.29     0  02:20        0.61
  WS02004412           JUNCTION     0.38     0.62     6.26     0  02:21        0.62
  WS02004413           JUNCTION     0.54     0.79     6.26     0  02:21        0.79
  WS02006109           JUNCTION     0.57     0.84     7.45     0  01:52        0.83
  WS02006110           JUNCTION     0.58     0.82     7.41     0  02:20        0.82
  WS02006111           JUNCTION     0.15     0.25     6.96     0  01:48        0.25
  WS02006112           JUNCTION     0.66     0.93     6.82     0  02:17        0.93
  WS02006113           JUNCTION     0.22     0.39     7.29     0  02:34        0.39
  WS02006115           JUNCTION     0.40     0.65     6.78     0  02:18        0.65
  WS02006116           JUNCTION     0.48     0.73     6.77     0  02:18        0.73
  WS02006228           JUNCTION     0.56     0.85     7.50     0  01:52        0.84
  WS02006229           JUNCTION     0.52     0.83     7.52     0  01:52        0.83
  WS02006230           JUNCTION     0.51     0.86     7.60     0  02:01        0.86
  WS02006231           JUNCTION     0.32     0.60     7.72     0  02:06        0.60
  WS02006232           JUNCTION     0.44     0.75     7.79     0  02:06        0.75
  WS02006234           JUNCTION     0.35     0.71     7.87     0  02:48        0.71
  WS02006235           JUNCTION     0.39     0.76     7.93     0  02:05        0.76
  WS02006238           JUNCTION     0.41     0.81     7.96     0  02:53        0.80
  WS02006239           JUNCTION     0.39     0.81     8.02     0  02:31        0.80
  WS02006240           JUNCTION     0.37     0.79     8.08     0  02:04        0.79
  WS02006242           JUNCTION     0.44     0.91     8.17     0  01:50        0.91
  WS02006243           JUNCTION     0.37     0.84     8.26     0  02:58        0.84
  WS02006245           JUNCTION     0.37     0.86     8.34     0  02:58        0.85
  WS02006247           JUNCTION     0.40     0.89     8.39     0  02:47        0.89
  WS02006248           JUNCTION     0.37     0.86     8.44     0  02:45        0.86
  WS02006249           JUNCTION     0.39     0.89     8.49     0  02:07        0.89
  WS02006251           JUNCTION     0.39     0.91     8.58     0  01:52        0.91
  WS02006252           JUNCTION     0.27     1.50     9.74     0  00:00        0.61
  WS02006256           JUNCTION     0.64     2.35     9.28     0  00:00        2.35
  WSF200               JUNCTION     0.13     0.25     5.48     0  02:21        0.25
  YS02001580           JUNCTION     0.07     1.05     9.59     0  01:47        0.78
  YS02001583           JUNCTION     0.10     1.14     9.64     0  01:47        0.82
  YS02001586           JUNCTION     0.16     1.13     9.30     0  01:47        1.13
  YS02001590           JUNCTION     0.25     1.40     9.26     0  01:47        1.40
  YS02001593           JUNCTION     0.19     1.35     9.21     0  01:47        1.33
  YS02001596           JUNCTION     0.37     1.70     9.11     0  01:47        1.69
  YS02001600           JUNCTION     0.61     1.87     9.00     0  01:47        1.87
  YS02001601           JUNCTION     0.87     2.06     8.90     0  01:47        2.06
  YS02001602           JUNCTION     0.79     1.87     8.77     0  01:47        1.87
  YS02001605           JUNCTION     0.76     1.78     8.68     0  01:47        1.78
  YS02001607           JUNCTION     0.76     1.65     8.49     0  01:52        1.64
  YS02001610           JUNCTION     0.81     1.68     8.48     0  01:47        1.68
  YS02001613           JUNCTION     0.76     1.67     8.51     0  01:47        1.66
  YS02001616           JUNCTION     0.70     1.61     8.52     0  01:47        1.60
  YS02001619           JUNCTION     0.68     1.61     8.54     0  01:47        1.60
  YS02001622           JUNCTION     0.69     1.60     8.50     0  01:47        1.57
  YS02001625           JUNCTION     0.95     1.78     8.38     0  01:47        1.78
  YS02001629           JUNCTION     0.98     1.85     8.40     0  01:47        1.85
  YS02001633           JUNCTION     1.06     2.08     8.53     0  01:50        2.08
  YS02001641           JUNCTION     1.05     1.96     8.40     0  01:51        1.88
  YS02001644           JUNCTION     1.05     1.92     8.35     0  01:51        1.92
  YS02001647           JUNCTION     0.86     1.68     8.29     0  01:51        1.56
  YS02001649           JUNCTION     1.03     1.87     8.26     0  01:51        1.67
  YS02001652           JUNCTION     0.86     1.79     8.39     0  01:51        1.48
  YS02001655           JUNCTION     0.65     1.51     8.36     0  01:51        1.24
  YS02001658           JUNCTION     0.42     1.38     8.52     0  01:51        0.97
  YS02001661           JUNCTION     0.21     0.75     8.15     0  01:52        0.75
  YS02001664           JUNCTION     0.05     0.27     8.20     0  01:51        0.27
  YS02001745           JUNCTION     0.10     0.47     7.99     0  01:51        0.37
  YS02001748           JUNCTION     0.45     0.92     7.99     0  01:52        0.91
  YS02001751           JUNCTION     0.61     1.38     8.26     0  01:51        1.08
  YS02001754           JUNCTION     0.83     1.46     8.07     0  01:51        1.32
  YS02001757           JUNCTION     1.12     2.21     8.47     0  03:52        2.21
  YS02001759           JUNCTION     1.04     2.21     8.57     0  03:52        2.21
  YS02001762           JUNCTION     1.01     2.15     8.55     0  03:52        2.15
  YS02001765           JUNCTION     0.97     2.10     8.55     0  03:52        2.10
  YS02001767           JUNCTION     0.94     1.70     8.19     0  01:50        1.54
  YS02001770           JUNCTION     0.94     1.78     8.27     0  01:50        1.58
  YS02001774           JUNCTION     1.00     2.05     8.47     0  03:52        2.05
  YS02001779           JUNCTION     0.77     1.68     8.37     0  01:50        1.40
  YS02001783           JUNCTION     0.42     2.03     8.17     0  01:50        1.48
  YS02001784           JUNCTION     0.46     2.00     8.07     0  01:50        1.41
  YS02001786           JUNCTION     0.46     2.15     8.18     0  01:50        1.26
  YS02001788           JUNCTION     0.47     1.96     7.94     0  01:50        1.13
  YS02001790           JUNCTION     0.68     1.94     7.58     0  01:50        1.29
  YS02001791           JUNCTION     0.76     2.72     8.19     0  01:49        1.97
  YS02001793           JUNCTION     1.16     1.95     6.78     0  01:50        1.86
  YS02001882           JUNCTION     0.26     1.83     8.55     0  01:48        1.72
  YS02001884           JUNCTION     0.35     1.93     8.55     0  01:48        1.80
  YS02001887           JUNCTION     0.43     1.96     8.49     0  01:48        1.85
  YS02001890           JUNCTION     0.46     1.81     8.32     0  01:48        1.81
  YS02001895           JUNCTION     0.23     1.59     8.33     0  01:48        1.55
  YS02001898           JUNCTION     0.24     1.72     8.45     0  01:48        1.54
  YS02001901           JUNCTION     0.35     1.70     8.31     0  01:49        1.67
  YS02001904           JUNCTION     0.33     1.67     8.30     0  01:49        1.63
  YS02001907           JUNCTION     0.65     1.96     8.25     0  01:49        1.96
  YS02001910           JUNCTION     0.45     1.96     8.47     0  01:50        1.83
  YS02001915           JUNCTION     0.26     1.90     8.62     0  01:50        1.68
  YS02001918           JUNCTION     0.13     1.81     8.88     0  01:50        1.37
  YS02001920           JUNCTION     0.21     2.14     9.15     0  01:50        1.45
  YS02001923           JUNCTION     0.09     2.03     9.29     0  01:50        1.22
  YS02001926           JUNCTION     0.13     1.90     9.35     0  01:50        1.07
  YS02001929           JUNCTION     0.07     1.66     9.35     0  01:50        0.88
  YS02006553           JUNCTION     0.65     2.08     8.36     0  01:50        1.97
  YS02006556           JUNCTION     0.63     2.19     8.50     0  01:50        1.93
  YS02006558           JUNCTION     0.67     2.28     8.55     0  01:50        1.97
  YS02006561           JUNCTION     0.14     1.56     8.22     0  01:50        1.08
  YS02163301           JUNCTION     1.01     1.96     8.48     0  01:50        1.96
  YS02163601           JUNCTION     1.10     2.08     8.48     0  01:50        2.08
  YS02164001           JUNCTION     1.03     1.97     8.43     0  01:51        1.96
  CC-1                 OUTFALL      0.00     0.00     0.00     0  00:00        0.00
  CC-2                 OUTFALL      0.00     0.00     0.00     0  00:00        0.00
  JK-1                 OUTFALL      0.00     0.00     0.00     0  00:00        0.00
  JK-2                 OUTFALL      0.00     0.00     0.00     0  00:00        0.00
  WSC                  OUTFALL      0.29     0.37     1.04     0  02:45        0.37
  CC-storage           STORAGE      1.74     2.21     7.71     0  03:01        2.21
  JK-storage           STORAGE      4.01     5.80     6.60     0  01:50        5.80
  XR-storage           STORAGE      0.26     5.00     3.00     0  00:00        4.91
  
  
  *******************
  Node Inflow Summary
  *******************
  
  -------------------------------------------------------------------------------------------------
                                  Maximum  Maximum                  Lateral       Total        Flow
                                  Lateral    Total  Time of Max      Inflow      Inflow     Balance
                                   Inflow   Inflow   Occurrence      Volume      Volume       Error
  Node                 Type           LPS      LPS  days hr:min    10^6 ltr    10^6 ltr     Percent
  -------------------------------------------------------------------------------------------------
  WS02001211           JUNCTION      7.35   389.14     0  03:33       0.212        11.1       0.348
  WS02001212           JUNCTION      0.00   390.84     0  03:36           0        11.1       0.208
  WS02001213           JUNCTION      0.00   392.60     0  03:35           0        11.1       0.238
  WS02003059           JUNCTION      0.00   395.63     0  03:35           0          11       0.329
  WS02003060           JUNCTION     16.53   816.05     0  02:22       0.476        15.1       0.144
  WS02003066           JUNCTION      0.00   411.87     0  02:21           0        3.62       0.038
  WS02003067           JUNCTION      0.00   411.87     0  02:21           0        3.62       0.116
  WS02003069           JUNCTION      0.32   816.36     0  02:22     0.00922        15.1       0.153
  WS02003072           JUNCTION      0.00   816.35     0  02:23           0          15       0.199
  WS02003073           JUNCTION      1.82   818.16     0  02:23      0.0524        15.1       0.215
  WS02004138           JUNCTION      0.00   380.00     0  00:00           0        10.9       0.059
  WS02004139           JUNCTION      0.32   395.52     0  00:00     0.00924        10.9       0.407
  WS02004401           JUNCTION      0.00   412.20     0  02:18           0        3.72       0.273
  WS02004402           JUNCTION      0.00   412.07     0  02:18           0        3.71       0.277
  WS02004403           JUNCTION      0.00   412.10     0  02:18           0         3.7       0.271
  WS02004404           JUNCTION      0.16   412.15     0  02:19     0.00467         3.7       0.252
  WS02004405           JUNCTION      0.04   412.17     0  02:19      0.0011        3.69       0.311
  WS02004406           JUNCTION      0.00   412.26     0  02:19           0        3.68       0.563
  WS02004407           JUNCTION      0.00   412.07     0  02:19           0        3.66       0.028
  WS02004409           JUNCTION      0.00   412.01     0  02:19           0        3.66       0.071
  WS02004410           JUNCTION      0.00   411.98     0  02:25           0        3.65       0.119
  WS02004411           JUNCTION      0.00   411.94     0  02:20           0        3.65       0.153
  WS02004412           JUNCTION      0.00   411.91     0  02:25           0        3.64       0.205
  WS02004413           JUNCTION      0.00   411.91     0  02:18           0        3.64       0.364
  WS02006109           JUNCTION      1.23   412.19     0  01:52      0.0354        3.76       0.083
  WS02006110           JUNCTION      0.00   411.79     0  01:53           0        3.76       0.167
  WS02006111           JUNCTION      0.00   423.31     0  02:39           0        3.75       0.027
  WS02006112           JUNCTION      0.00   413.81     0  02:17           0        3.75       0.471
  WS02006113           JUNCTION      0.00   411.99     0  02:28           0        3.75       0.036
  WS02006115           JUNCTION      0.00   412.41     0  02:17           0        3.73       0.173
  WS02006116           JUNCTION      0.00   412.21     0  03:22           0        3.73       0.127
  WS02006228           JUNCTION      0.00   411.77     0  01:52           0        3.73       0.021
  WS02006229           JUNCTION      0.00   410.69     0  01:53           0        3.74       0.181
  WS02006230           JUNCTION     10.28   410.64     0  02:07       0.296        3.74       0.162
  WS02006231           JUNCTION      0.00   400.43     0  02:06           0        3.44      -0.184
  WS02006232           JUNCTION      0.00   400.40     0  02:06           0        3.45       0.415
  WS02006234           JUNCTION      0.00   401.87     0  01:49           0        3.44      -0.260
  WS02006235           JUNCTION      0.00   402.19     0  02:45           0        3.48       0.354
  WS02006238           JUNCTION      0.00   402.27     0  01:44           0        3.39      -0.453
  WS02006239           JUNCTION      0.00   401.22     0  02:31           0        3.37      -0.338
  WS02006240           JUNCTION      0.00   401.02     0  02:40           0        3.36      -0.055
  WS02006242           JUNCTION      0.00   401.41     0  02:39           0        3.35       0.075
  WS02006243           JUNCTION      0.00   401.89     0  01:56           0        3.34       0.048
  WS02006245           JUNCTION      0.00   404.05     0  01:52           0        3.36       0.600
  WS02006247           JUNCTION      0.00   401.06     0  01:52           0        3.36       0.008
  WS02006248           JUNCTION      0.00   404.64     0  04:03           0        3.36       0.056
  WS02006249           JUNCTION      0.00   482.16     0  04:01           0        3.38       0.593
  WS02006251           JUNCTION      0.08   401.66     0  03:52     0.00222        3.38      -0.018
  WS02006252           JUNCTION      0.00   400.00     0  00:00           0        3.37      -0.087
  WS02006256           JUNCTION      0.00   300.00     0  00:00           0       0.115      -1.980
  WSF200               JUNCTION      0.00   411.87     0  02:21           0        3.62       0.020
  YS02001580           JUNCTION      0.00   162.47     0  01:47           0      0.0043       0.261
  YS02001583           JUNCTION      0.00   275.37     0  01:47           0      0.0143     -13.336
  YS02001586           JUNCTION    431.39   431.59     0  01:53        1.08        1.09       0.160
  YS02001590           JUNCTION      0.00   318.32     0  02:03           0        1.01       0.004
  YS02001593           JUNCTION      0.00   318.33     0  02:03           0        1.01       0.078
  YS02001596           JUNCTION      0.00   318.07     0  01:52           0        1.01       0.041
  YS02001600           JUNCTION      0.00   318.04     0  01:53           0        1.03       0.494
  YS02001601           JUNCTION    773.46  1091.04     0  01:51        1.45        2.48       0.349
  YS02001602           JUNCTION      0.00   568.18     0  01:47           0        1.84       0.485
  YS02001605           JUNCTION      0.00   568.34     0  01:47           0        1.77       0.761
  YS02001607           JUNCTION      0.00   568.22     0  01:47           0        1.77       1.006
  YS02001610           JUNCTION      0.00   541.10     0  01:47           0        1.77       1.068
  YS02001613           JUNCTION      0.00   540.32     0  01:47           0        1.62       1.183
  YS02001616           JUNCTION      0.00   540.97     0  01:47           0        1.63       0.996
  YS02001619           JUNCTION    743.38   974.38     0  01:47        1.66        3.29       0.468
  YS02001622           JUNCTION      0.00   929.39     0  01:47           0        3.29       0.670
  YS02001625           JUNCTION      0.00   920.17     0  01:49           0         3.3       1.312
  YS02001629           JUNCTION      0.00   916.49     0  01:48           0        3.02       0.572
  YS02001633           JUNCTION    593.15  1441.86     0  01:49         1.1        4.09       0.780
  YS02001641           JUNCTION      0.00  1444.99     0  01:49           0        4.02       0.517
  YS02001644           JUNCTION    510.90  1912.65     0  01:49       0.897         4.9       0.527
  YS02001647           JUNCTION      0.00  1913.70     0  01:49           0        4.86       0.546
  YS02001649           JUNCTION      0.00  2212.08     0  01:49           0        5.72       0.648
  YS02001652           JUNCTION      0.00   570.61     0  01:52           0       0.936       2.209
  YS02001655           JUNCTION      0.15   572.22     0  01:52     0.00443       0.955       1.208
  YS02001658           JUNCTION      0.00   667.67     0  01:51           0       0.999       0.835
  YS02001661           JUNCTION      0.00   514.08     0  01:51           0       0.942       0.326
  YS02001664           JUNCTION    510.23   510.23     0  01:51       0.852       0.852      -0.031
  YS02001745           JUNCTION    322.43   322.43     0  01:50       0.492        0.52       0.497
  YS02001748           JUNCTION      0.04   439.01     0  01:52      0.0013        0.59       1.287
  YS02001751           JUNCTION      0.01   413.76     0  01:53    0.000317       0.606       2.804
  YS02001754           JUNCTION      0.26   374.34     0  01:52     0.00749       0.583       3.848
  YS02001757           JUNCTION      0.00  3228.30     0  01:53           0        7.82       1.226
  YS02001759           JUNCTION    466.15  1192.36     0  01:50       0.718        1.71       1.319
  YS02001762           JUNCTION      0.00   716.29     0  01:50           0        1.01       2.149
  YS02001765           JUNCTION      0.00   703.62     0  01:50           0        1.02       2.258
  YS02001767           JUNCTION      0.54   693.48     0  01:50      0.0154        1.06       3.388
  YS02001770           JUNCTION    637.53   672.67     0  01:50        1.06        1.14       2.878
  YS02001774           JUNCTION      0.00   394.13     0  01:50           0       0.131      22.465
  YS02001779           JUNCTION      0.01   392.82     0  01:50    0.000144      0.0554      24.894
  YS02001783           JUNCTION      0.00  1150.48     0  01:50           0        2.88       0.011
  YS02001784           JUNCTION      1.06  1152.50     0  01:50      0.0305        2.91       0.023
  YS02001786           JUNCTION      0.06  1157.78     0  01:50     0.00162        2.91       0.026
  YS02001788           JUNCTION      0.07  1163.72     0  01:50     0.00204        2.91      -0.009
  YS02001790           JUNCTION      0.15  1094.99     0  01:49     0.00446        2.92      -0.008
  YS02001791           JUNCTION      0.00  1065.99     0  01:49           0        2.92      -0.043
  YS02001793           JUNCTION      0.00  1066.03     0  01:50           0        2.92       0.014
  YS02001882           JUNCTION      0.00    66.96     0  01:48           0      0.0123       3.047
  YS02001884           JUNCTION      0.00   133.08     0  01:48           0      0.0482       4.641
  YS02001887           JUNCTION    505.60   537.77     0  01:48       0.748       0.782       0.536
  YS02001890           JUNCTION      0.00   548.42     0  01:48           0       0.741       0.654
  YS02001895           JUNCTION      0.00   556.54     0  01:48           0       0.736       0.213
  YS02001898           JUNCTION      0.00   535.10     0  01:48           0       0.735      -0.017
  YS02001901           JUNCTION      0.00   542.02     0  01:49           0       0.738       0.440
  YS02001904           JUNCTION      0.00   545.56     0  01:49           0       0.742       0.368
  YS02001907           JUNCTION      0.00  1461.94     0  01:51           0        2.25       0.802
  YS02001910           JUNCTION      0.00   981.72     0  01:51           0        1.51       0.483
  YS02001915           JUNCTION    521.68   980.86     0  01:51       0.915        1.56       0.067
  YS02001918           JUNCTION      0.00   543.08     0  01:49           0       0.678      -0.008
  YS02001920           JUNCTION      2.87   456.62     0  01:51      0.0827       0.655       0.099
  YS02001923           JUNCTION      0.04   597.26     0  01:49     0.00109       0.555      -0.301
  YS02001926           JUNCTION      0.05   850.71     0  01:49      0.0015       0.537      -0.103
  YS02001929           JUNCTION    265.06   703.59     0  01:50       0.515        0.52      -0.166
  YS02006553           JUNCTION      0.00   672.56     0  02:03           0        1.89       0.631
  YS02006556           JUNCTION      0.00   672.17     0  02:03           0         1.9       0.423
  YS02006558           JUNCTION    633.75  1187.13     0  01:49        1.03        2.91       0.122
  YS02006561           JUNCTION      0.00  1186.57     0  01:49           0        2.88      -0.010
  YS02163301           JUNCTION      0.00   915.77     0  01:48           0        3.02       0.791
  YS02163601           JUNCTION      0.11  1441.38     0  01:49     0.00317        4.05       0.737
  YS02164001           JUNCTION      0.00  1442.16     0  01:49           0        4.03       0.472
  CC-1                 OUTFALL       0.00   683.00     0  00:00           0       0.208       0.000
  CC-2                 OUTFALL       0.00   683.00     0  00:00           0       0.208       0.000
  JK-1                 OUTFALL       0.00  1000.00     0  00:00           0      0.0791       0.000
  JK-2                 OUTFALL       0.00  1000.00     0  00:00           0       0.381       0.000
  WSC                  OUTFALL       0.00   818.15     0  02:45           0          15       0.000
  CC-storage           STORAGE       0.00  3229.54     0  01:53           0        9.75       0.372
  JK-storage           STORAGE       0.00  1070.65     0  01:50           0        3.07      -0.757
  XR-storage           STORAGE     200.00   200.00     0  00:00        5.76        6.36     -41.886
  
  
  **********************
  Node Surcharge Summary
  **********************
  
  Surcharging occurs when water rises above the top of the highest conduit.
  ---------------------------------------------------------------------
                                               Max. Height   Min. Depth
                                   Hours       Above Crown    Below Rim
  Node                 Type      Surcharged         Meters       Meters
  ---------------------------------------------------------------------
  WS02006109           JUNCTION        1.68          0.016        1.804
  WS02006228           JUNCTION        1.67          0.017        2.183
  WS02006229           JUNCTION        1.69          0.029        2.421
  WS02006232           JUNCTION        1.74          0.050        1.430
  WS02006235           JUNCTION        1.69          0.055        1.235
  WS02006238           JUNCTION        1.72          0.094        1.336
  WS02006239           JUNCTION        1.69          0.068        1.222
  WS02006240           JUNCTION        1.70          0.080        1.310
  WS02006242           JUNCTION        1.78          0.175        0.645
  WS02006243           JUNCTION        1.72          0.132        0.638
  WS02006245           JUNCTION        1.72          0.146        0.704
  WS02006247           JUNCTION        1.73          0.181        0.579
  WS02006248           JUNCTION        1.71          0.138        0.242
  WS02006249           JUNCTION        1.73          0.195        0.195
  WS02006252           JUNCTION        2.26          1.100        0.000
  WS02006256           JUNCTION        4.46          2.050        0.000
  YS02001580           JUNCTION        0.37          0.450        0.000
  YS02001583           JUNCTION        0.37          0.500        0.000
  YS02001586           JUNCTION        0.54          0.510        0.000
  YS02001590           JUNCTION        0.63          0.750        0.000
  YS02001593           JUNCTION        0.63          0.732        0.108
  YS02001596           JUNCTION        0.77          0.965        0.105
  YS02001600           JUNCTION        1.32          1.190        0.000
  YS02001601           JUNCTION        6.36          1.440        0.000
  YS02001602           JUNCTION        6.33          1.270        0.000
  YS02001605           JUNCTION        6.32          1.180        0.000
  YS02001607           JUNCTION        0.80          0.645        0.035
  YS02001610           JUNCTION        1.05          0.680        0.000
  YS02001613           JUNCTION        0.81          0.670        0.030
  YS02001616           JUNCTION        0.68          0.610        0.000
  YS02001619           JUNCTION        0.65          0.610        0.000
  YS02001622           JUNCTION        0.67          0.598        0.022
  YS02001625           JUNCTION        3.49          0.780        0.000
  YS02001629           JUNCTION        0.58          0.470        0.000
  YS02001633           JUNCTION        6.23          1.060        0.000
  YS02001641           JUNCTION        6.22          0.961        0.139
  YS02001644           JUNCTION        6.22          0.920        0.000
  YS02001647           JUNCTION        2.43          0.681        0.219
  YS02001649           JUNCTION        6.18          0.866        0.184
  YS02001652           JUNCTION        2.28          0.765        0.365
  YS02001655           JUNCTION        0.15          0.508        0.692
  YS02001658           JUNCTION        0.01          0.378        0.922
  YS02001751           JUNCTION        0.03          0.383        0.817
  YS02001754           JUNCTION        1.63          0.414        0.736
  YS02001757           JUNCTION        6.18          1.210        0.000
  YS02001759           JUNCTION        6.17          1.210        0.000
  YS02001762           JUNCTION        6.17          1.150        0.000
  YS02001765           JUNCTION        6.17          1.100        0.000
  YS02001767           JUNCTION        6.17          0.697        0.333
  YS02001770           JUNCTION        6.17          0.750        0.170
  YS02001774           JUNCTION        6.17          1.050        0.000
  YS02001779           JUNCTION        0.91          0.680        0.000
  YS02001783           JUNCTION        0.50          1.231        0.369
  YS02001784           JUNCTION        0.50          1.204        0.286
  YS02001786           JUNCTION        0.48          1.351        0.079
  YS02001788           JUNCTION        0.47          1.162        0.318
  YS02001790           JUNCTION        5.03          1.140        0.017
  YS02001791           JUNCTION        5.03          1.920        0.000
  YS02001793           JUNCTION        5.04          0.945        1.655
  YS02001882           JUNCTION        0.36          0.830        0.000
  YS02001884           JUNCTION        0.36          0.870        0.000
  YS02001887           JUNCTION        0.40          0.906        0.044
  YS02001890           JUNCTION        0.41          0.760        0.000
  YS02001895           JUNCTION        0.35          0.587        0.163
  YS02001898           JUNCTION        0.34          0.690        0.050
  YS02001901           JUNCTION        0.38          0.699        0.171
  YS02001904           JUNCTION        0.38          0.666        0.184
  YS02001907           JUNCTION        0.55          0.950        0.000
  YS02001910           JUNCTION        0.43          0.964        0.136
  YS02001915           JUNCTION        0.35          0.904        0.096
  YS02001918           JUNCTION        0.26          0.810        0.000
  YS02001920           JUNCTION        0.28          1.140        0.000
  YS02001923           JUNCTION        0.01          0.820        0.000
  YS02001926           JUNCTION        0.01          0.900        0.000
  YS02001929           JUNCTION        0.01          0.656        0.124
  YS02006553           JUNCTION        0.57          1.079        0.111
  YS02006556           JUNCTION        0.49          1.154        0.196
  YS02006558           JUNCTION        0.49          1.183        0.217
  YS02006561           JUNCTION        0.29          0.760        0.390
  YS02163301           JUNCTION        6.23          0.960        0.070
  YS02163601           JUNCTION        6.23          1.077        0.003
  YS02164001           JUNCTION        6.22          0.970        0.130
  
  
  *********************
  Node Flooding Summary
  *********************
  
  Flooding refers to all water that overflows a node, whether it ponds or not.
  --------------------------------------------------------------------------
                                                             Total   Maximum
                                 Maximum   Time of Max       Flood    Ponded
                        Hours       Rate    Occurrence      Volume     Depth
  Node                 Flooded       LPS   days hr:min    10^6 ltr    Meters
  --------------------------------------------------------------------------
  WS02006252              0.01    262.73      0  04:11       0.000     0.000
  WS02006256              0.11    293.19      0  00:00       0.018     0.000
  YS02001580              0.01     47.77      0  01:47       0.000     0.000
  YS02001583              0.01    179.82      0  01:47       0.001     0.000
  YS02001586              0.26    155.44      0  01:48       0.069     0.000
  YS02001590              0.01     13.72      0  01:47       0.000     0.000
  YS02001600              0.01      4.10      0  01:47       0.000     0.000
  YS02001601              0.46    693.17      0  01:51       0.626     0.000
  YS02001602              0.37     62.05      0  01:57       0.071     0.000
  YS02001605              0.01      4.49      0  01:47       0.000     0.000
  YS02001610              0.30    250.48      0  01:53       0.164     0.000
  YS02001616              0.01     47.98      0  01:47       0.000     0.000
  YS02001619              0.01     83.26      0  01:47       0.000     0.000
  YS02001625              0.26    622.04      0  01:53       0.248     0.000
  YS02001629              0.03    247.03      0  01:47       0.002     0.000
  YS02001633              0.01      1.27      0  01:50       0.000     0.000
  YS02001644              0.01      9.34      0  01:51       0.000     0.000
  YS02001757              0.01      1.28      0  03:52       0.000     0.000
  YS02001759              0.01      0.94      0  03:52       0.000     0.000
  YS02001762              0.01      2.38      0  03:52       0.000     0.000
  YS02001765              0.01      2.52      0  03:52       0.000     0.000
  YS02001774              0.01      3.35      0  03:52       0.000     0.000
  YS02001779              0.01    346.92      0  01:50       0.003     0.000
  YS02001791              0.01    177.28      0  01:49       0.000     0.000
  YS02001882              0.01     21.69      0  01:48       0.000     0.000
  YS02001884              0.01     32.03      0  01:48       0.000     0.000
  YS02001890              0.01     15.32      0  01:49       0.000     0.000
  YS02001907              0.20   1117.13      0  01:51       0.346     0.000
  YS02001918              0.01    248.59      0  01:50       0.003     0.000
  YS02001920              0.01     84.98      0  01:50       0.000     0.000
  YS02001923              0.01    135.46      0  01:50       0.001     0.000
  YS02001926              0.01    491.09      0  01:50       0.003     0.000
  JK-storage              5.02   1066.24      0  01:50       2.465     0.000
  
  
  **********************
  Storage Volume Summary
  **********************
  
  ------------------------------------------------------------------------------------------------
                         Average    Avg   Evap  Exfil     Maximum    Max    Time of Max    Maximum
                          Volume   Pcnt   Pcnt   Pcnt      Volume   Pcnt     Occurrence    Outflow
  Storage Unit           1000 m³   Full   Loss   Loss     1000 m³   Full    days hr:min        LPS
  ------------------------------------------------------------------------------------------------
  CC-storage               4.862   75.8    0.0    0.0       6.166   96.2       0  03:01    1783.53
  JK-storage               0.201   69.1    0.0    0.0       0.291  100.0       0  01:50    2300.00
  XR-storage               0.031    2.1    0.0    0.0       0.600   41.7       0  00:00     380.00
  
  
  ***********************
  Outfall Loading Summary
  ***********************
  
  -----------------------------------------------------------
                         Flow       Avg       Max       Total
                         Freq      Flow      Flow      Volume
  Outfall Node           Pcnt       LPS       LPS    10^6 ltr
  -----------------------------------------------------------
  CC-1                   1.12    683.00    683.00       0.208
  CC-2                   1.12    683.00    683.00       0.208
  JK-1                   1.05    347.46   1000.00       0.079
  JK-2                   2.24    694.63   1000.00       0.381
  WSC                   99.93    551.10    818.15      15.038
  -----------------------------------------------------------
  System                21.09   2959.19   3366.35      15.914
  
  
  ********************
  Link Flow Summary
  ********************
  
  -----------------------------------------------------------------------------
                                 Maximum  Time of Max   Maximum    Max/    Max/
                                  |Flow|   Occurrence   |Veloc|    Full    Full
  Link                 Type          LPS  days hr:min     m/sec    Flow   Depth
  -----------------------------------------------------------------------------
  1                    CONDUIT    818.15     0  02:45      3.15    0.28    0.37
  WS02001211WS02001212 CONDUIT    390.84     0  03:36      0.78    0.30    0.64
  WS02001212WS02001213 CONDUIT    392.60     0  03:35      1.32    0.61    0.45
  WS02001213WS02003059 CONDUIT    395.63     0  03:35      0.85    0.65    0.75
  WS02003059WS02003060 CONDUIT    399.95     0  03:35      0.95    0.26    0.63
  WS02003060WS02003069 CONDUIT    816.04     0  02:22      1.80    0.32    0.42
  WS02003066WSF200     CONDUIT    411.87     0  02:21      2.69    0.07    0.19
  WS02003067WS02003066 CONDUIT    411.87     0  02:21      1.04    0.13    0.38
  WS02003069WS02003072 CONDUIT    816.35     0  02:23      1.55    0.39    0.47
  WS02003072WS02003073 CONDUIT    816.34     0  02:23      1.64    1.76    0.45
  WS02004138WS02004139 CONDUIT    395.20     0  00:00      3.65    0.08    0.43
  WS02004139WS02001211 CONDUIT    381.79     0  03:33      0.91    0.48    0.59
  WS02004401WS02004402 CONDUIT    412.07     0  02:18      0.99    0.49    0.77
  WS02004402WS02004403 CONDUIT    412.10     0  02:18      0.99    0.59    0.79
  WS02004403WS02004404 CONDUIT    411.99     0  02:19      0.93    0.30    0.84
  WS02004404WS02004405 CONDUIT    412.13     0  02:19      1.10    4.04    0.88
  WS02004405WS02004406 CONDUIT    412.26     0  02:19      1.03    0.81    0.88
  WS02004406WS02004407 CONDUIT    412.07     0  02:19      0.89    0.18    0.57
  WS02004407WS02004409 CONDUIT    412.01     0  02:19      1.41    0.15    0.42
  WS02004409WS02004410 CONDUIT    411.98     0  02:25      0.92    0.53    0.58
  WS02004410WS02004411 CONDUIT    411.94     0  02:20      0.86    0.56    0.60
  WS02004411WS02004412 CONDUIT    411.91     0  02:25      0.81    0.59    0.61
  WS02004412WS02004413 CONDUIT    411.91     0  02:18      0.70    0.28    0.70
  WS02004413WS02003067 CONDUIT    411.87     0  02:21      0.96    0.18    0.53
  WS02006109WS02006110 CONDUIT    411.79     0  01:53      0.84    0.79    0.94
  WS02006110WS02006113 CONDUIT    411.99     0  02:28      1.03    0.37    0.75
  WS02006111WS02006112 CONDUIT    413.81     0  02:17      1.83    0.20    0.65
  WS02006112WS02006115 CONDUIT    412.41     0  02:17      0.71    0.24    0.78
  WS02006113WS02006111 CONDUIT    423.31     0  02:39      2.25    0.51    0.40
  WS02006115WS02006116 CONDUIT    412.21     0  03:22      0.98    0.53    0.66
  WS02006116WS02004401 CONDUIT    412.20     0  02:18      1.00    0.57    0.74
  WS02006228WS02006109 CONDUIT    410.96     0  01:52      1.06    1.80    1.00
  WS02006229WS02006228 CONDUIT    411.77     0  01:52      1.13    1.36    1.00
  WS02006230WS02006229 CONDUIT    410.69     0  01:53      1.22    9.14    1.00
  WS02006231WS02006230 CONDUIT    400.36     0  02:07      1.37    6.07    0.77
  WS02006232WS02006231 CONDUIT    400.43     0  02:06      1.08    0.84    0.92
  WS02006234WS02006232 CONDUIT    400.40     0  02:06      1.40    0.81    1.00
  WS02006235WS02006234 CONDUIT    401.87     0  01:49      1.29    4.24    0.99
  WS02006238WS02006235 CONDUIT    402.10     0  02:45      1.47    0.90    1.00
  WS02006239WS02006238 CONDUIT    402.27     0  01:44      1.21    1.29    1.00
  WS02006240WS02006239 CONDUIT    401.22     0  02:31      1.30    1.26    1.00
  WS02006242WS02006240 CONDUIT    401.02     0  02:40      1.19    1.59    1.00
  WS02006243WS02006242 CONDUIT    401.41     0  02:39      1.43    0.86    1.00
  WS02006245WS02006243 CONDUIT    401.89     0  01:56      1.45    1.19    1.00
  WS02006247WS02006245 CONDUIT    404.05     0  01:52      1.43    3.20    1.00
  WS02006248WS02006247 CONDUIT    401.06     0  01:52      1.46    0.87    1.00
  WS02006249WS02006248 CONDUIT    404.64     0  04:03      1.40    2.22    1.00
  WS02006251WS02006249 CONDUIT    482.16     0  04:01      1.99    1.39    1.00
  WS02006252WS02006251 CONDUIT    401.58     0  03:52     27.91    1.47    1.00
  WS02006256WS02006235 CONDUIT    288.91     0  00:00      4.23    3.06    1.00
  WSF200WS02003060     CONDUIT    411.87     0  02:22      1.43    0.09    0.30
  YS02001580YS02001583 CONDUIT    162.47     0  01:47      0.88    0.63    1.00
  YS02001583YS02001586 CONDUIT    206.05     0  01:47      0.88    0.31    1.00
  YS02001586YS02001590 CONDUIT    318.32     0  02:03      1.29    0.56    1.00
  YS02001590YS02001593 CONDUIT    318.33     0  02:03      1.13    2.00    1.00
  YS02001593YS02001596 CONDUIT    318.07     0  01:52      1.62    0.50    1.00
  YS02001596YS02001600 CONDUIT    318.04     0  01:53      1.12    0.62    1.00
  YS02001600YS02001601 CONDUIT    318.67     0  01:50      1.13    0.55    1.00
  YS02001601YS02001602 CONDUIT    568.18     0  01:47      2.01    2.05    1.00
  YS02001602YS02001605 CONDUIT    568.34     0  01:47      2.01   12.03    1.00
  YS02001605YS02001607 CONDUIT    568.22     0  01:47      2.01    3.12    1.00
  YS02001607YS02001610 CONDUIT    541.10     0  01:47      0.69    0.51    1.00
  YS02001610YS02001613 CONDUIT    540.32     0  01:47      0.69    0.62    1.00
  YS02001613YS02001616 CONDUIT    540.97     0  01:47      0.69    0.46    1.00
  YS02001616YS02001619 CONDUIT    498.24     0  01:47      0.66    0.87    1.00
  YS02001619YS02001622 CONDUIT    929.39     0  01:47      1.25    1.37    1.00
  YS02001622YS02001625 CONDUIT    920.17     0  01:49      1.17    0.49    1.00
  YS02001625YS02001629 CONDUIT    916.49     0  01:48      1.17    0.44    1.00
  YS02001629YS02163301 CONDUIT    915.77     0  01:48      1.17    1.13    1.00
  YS02001633YS02163601 CONDUIT   1441.27     0  01:49      1.84    1.51    1.00
  YS02001641YS02001644 CONDUIT   1449.42     0  01:49      1.85    4.69    1.00
  YS02001644YS02001647 CONDUIT   1913.70     0  01:49      2.45    1.12    1.00
  YS02001647YS02001649 CONDUIT   1886.83     0  01:49      2.43    1.00    1.00
  YS02001649YS02001757 CONDUIT   2215.48     0  01:49      2.82    1.34    1.00
  YS02001652YS02001649 CONDUIT    571.33     0  01:52      0.83    0.28    1.00
  YS02001655YS02001652 CONDUIT    570.61     0  01:52      1.42    0.28    1.00
  YS02001658YS02001655 CONDUIT    572.07     0  01:52      2.04    0.24    1.00
  YS02001661YS02001658 CONDUIT    667.67     0  01:51      2.41    0.26    0.83
  YS02001664YS02001661 CONDUIT    514.08     0  01:51      2.31    0.16    0.51
  YS02001745YS02001748 CONDUIT    438.97     0  01:52      2.25    0.17    0.61
  YS02001748YS02001751 CONDUIT    413.75     0  01:53      1.83    0.21    0.96
  YS02001751YS02001754 CONDUIT    374.08     0  01:52      1.53    0.18    1.00
  YS02001754YS02001757 CONDUIT    373.73     0  01:52      0.52    0.15    1.00
  YS02001757CaochengTiaoxuchi CONDUIT   3229.54     0  01:53      4.16    1.40    1.00
  YS02001759YS02001757 CONDUIT   1202.71     0  01:50      1.53    0.85    1.00
  YS02001762YS02001759 CONDUIT    729.87     0  01:50      0.93    0.84    1.00
  YS02001765YS02001762 CONDUIT    716.29     0  01:50      0.91    0.67    1.00
  YS02001767YS02001765 CONDUIT    703.62     0  01:50      0.90    0.88    1.00
  YS02001770YS02001767 CONDUIT    692.94     0  01:50      0.88    2.74    1.00
  YS02001774YS02001770 CONDUIT    394.13     0  01:50      0.50    0.25    1.00
  YS02001779YS02001774 CONDUIT    392.82     0  01:50      0.51    0.20    1.00
  YS02001783YS02001784 CONDUIT   1151.44     0  01:50      2.29    1.59    1.00
  YS02001784YS02001785 CONDUIT   1157.72     0  01:50      2.30    2.69    1.00
  YS02001786YS02001788 CONDUIT   1163.65     0  01:50      2.46    2.24    1.00
  YS02001788YS02001790 CONDUIT   1094.83     0  01:49      2.59    0.81    1.00
  YS02001790YS02001791 CONDUIT   1065.99     0  01:49      3.01    1.16    1.00
  YS02001791YS02001793 CONDUIT   1066.03     0  01:50      5.81    0.46    1.00
  YS02001793JiankangQianchi CONDUIT   1070.65     0  01:50      1.65    0.09    1.00
  YS02001882YS02001884 CONDUIT     66.96     0  01:48      0.13    0.08    1.00
  YS02001884YS02001887 CONDUIT    133.08     0  01:48      0.17    0.18    1.00
  YS02001887YS02001890 CONDUIT    548.42     0  01:48      0.70    0.94    1.00
  YS02001890YS02001895 CONDUIT    556.54     0  01:48      0.71    0.26    1.00
  YS02001895YS02001898 CONDUIT    535.10     0  01:48      0.68    0.93    1.00
  YS02001898YS02001901 CONDUIT    542.02     0  01:49      0.69    0.35    1.00
  YS02001901YS02001904 CONDUIT    545.56     0  01:49      0.69    0.85    1.00
  YS02001904YS02001907 CONDUIT    550.45     0  01:49      0.70    0.19    1.00
  YS02001907YS02006553 CONDUIT    672.56     0  02:03      0.75    0.79    1.00
  YS02001910YS02001907 CONDUIT    983.43     0  01:51      1.25    0.55    1.00
  YS02001915YS02001910 CONDUIT    981.72     0  01:51      1.25    0.49    1.00
  YS02001918YS02001915 CONDUIT    543.08     0  01:49      0.73    0.30    1.00
  YS02001920YS02001918 CONDUIT    458.18     0  01:51      0.66    0.44    1.00
  YS02001923YS02001920 CONDUIT    453.75     0  01:51      0.76    0.20    1.00
  YS02001926YS02001923 CONDUIT    614.41     0  01:49      1.04    0.88    1.00
  YS02001929YS02001926 CONDUIT    496.94     0  01:50      1.20    0.24    1.00
  YS02006553YS02006556 CONDUIT    672.17     0  02:03      0.86    0.58    1.00
  YS02006556YS02006558 CONDUIT    673.62     0  02:03      0.86    0.53    1.00
  YS02006558YS02006561 CONDUIT   1186.57     0  01:49      4.20    2.62    1.00
  YS02006561YS02001783 CONDUIT   1150.48     0  01:50      2.29    0.60    1.00
  YS02163301YS02001633 CONDUIT    916.94     0  01:48      1.17    0.86    1.00
  YS02163601YS02164001 CONDUIT   1442.16     0  01:49      1.84    1.28    1.00
  YS02164001YS02001641 CONDUIT   1444.99     0  01:49      1.84    1.97    1.00
  CC-R1                PUMP       683.00     0  00:00              1.00
  CC-R2                PUMP       683.00     0  00:00              1.00
  CC-S1                PUMP       200.00     0  00:00              1.00
  CC-S2                PUMP       200.00     0  00:00              1.00
  JK-R1                PUMP      1000.00     0  00:00              1.00
  JK-R2                PUMP      1000.00     0  00:00              1.00
  JK-S                 PUMP       300.00     0  00:00              1.00
  XR-1                 PUMP        95.00     0  00:00              1.00
  XR-2                 PUMP        95.00     0  00:00              1.00
  XR-3                 PUMP        95.00     0  00:00              1.00
  XR-4                 PUMP        95.00     0  00:00              1.00
  
  
  ***************************
  Flow Classification Summary
  ***************************
  
  -------------------------------------------------------------------------------------
                      Adjusted    ---------- Fraction of Time in Flow Class ---------- 
                       /Actual         Up    Down  Sub   Sup   Up    Down  Norm  Inlet 
  Conduit               Length    Dry  Dry   Dry   Crit  Crit  Crit  Crit  Ltd   Ctrl  
  -------------------------------------------------------------------------------------
  1                       1.00   0.00  0.00  0.00  0.00  1.00  0.00  0.00  0.32  0.00
  WS02001211WS02001212    1.00   0.00  0.00  0.00  1.00  0.00  0.00  0.00  0.00  0.00
  WS02001212WS02001213    1.00   0.00  0.00  0.00  0.58  0.00  0.42  0.00  0.00  0.00
  WS02001213WS02003059    1.00   0.00  0.00  0.00  0.99  0.00  0.00  0.00  0.00  0.00
  WS02003059WS02003060    1.00   0.00  0.00  0.00  1.00  0.00  0.00  0.00  0.00  0.00
  WS02003060WS02003069    1.00   0.00  0.00  0.00  0.99  0.01  0.00  0.00  0.00  0.00
  WS02003066WSF200        1.00   0.02  0.10  0.00  0.00  0.88  0.00  0.00  0.86  0.00
  WS02003067WS02003066    1.00   0.10  0.02  0.00  0.89  0.00  0.00  0.00  0.00  0.00
  WS02003069WS02003072    1.00   0.00  0.00  0.00  0.99  0.01  0.00  0.00  0.00  0.00
  WS02003072WS02003073    1.00   0.00  0.00  0.00  0.00  0.00  0.00  1.00  0.00  0.00
  WS02004138WS02004139    1.00   0.00  0.00  0.00  0.99  0.01  0.00  0.00  1.00  0.00
  WS02004139WS02001211    1.00   0.00  0.00  0.00  1.00  0.00  0.00  0.00  0.00  0.00
  WS02004401WS02004402    1.00   0.02  0.00  0.00  0.98  0.00  0.00  0.00  0.00  0.00
  WS02004402WS02004403    1.00   0.02  0.00  0.00  0.98  0.00  0.00  0.00  0.00  0.00
  WS02004403WS02004404    1.00   0.00  0.03  0.00  0.97  0.00  0.00  0.00  0.00  0.00
  WS02004404WS02004405    1.00   0.00  0.00  0.00  1.00  0.00  0.00  0.00  0.01  0.00
  WS02004405WS02004406    1.00   0.00  0.00  0.00  1.00  0.00  0.00  0.00  0.00  0.00
  WS02004406WS02004407    1.00   0.00  0.05  0.00  0.95  0.00  0.00  0.00  0.00  0.00
  WS02004407WS02004409    1.00   0.05  0.00  0.00  0.94  0.01  0.00  0.00  0.94  0.00
  WS02004409WS02004410    1.00   0.05  0.00  0.00  0.95  0.00  0.00  0.00  0.02  0.00
  WS02004410WS02004411    1.00   0.05  0.00  0.00  0.95  0.00  0.00  0.00  0.00  0.00
  WS02004411WS02004412    1.00   0.05  0.00  0.00  0.95  0.00  0.00  0.00  0.00  0.00
  WS02004412WS02004413    1.00   0.05  0.00  0.00  0.94  0.00  0.00  0.00  0.01  0.00
  WS02004413WS02003067    1.00   0.06  0.04  0.00  0.00  0.00  0.90  0.00  0.00  0.00
  WS02006109WS02006110    1.00   0.00  0.01  0.00  0.98  0.00  0.01  0.00  0.00  0.00
  WS02006110WS02006113    1.00   0.01  0.01  0.00  0.98  0.00  0.00  0.00  0.00  0.00
  WS02006111WS02006112    1.00   0.02  0.00  0.00  0.98  0.00  0.00  0.00  0.98  0.00
  WS02006112WS02006115    1.00   0.02  0.00  0.00  0.97  0.00  0.00  0.00  0.00  0.00
  WS02006113WS02006111    1.00   0.02  0.00  0.00  0.00  0.98  0.00  0.00  0.16  0.00
  WS02006115WS02006116    1.00   0.02  0.00  0.00  0.97  0.00  0.00  0.01  0.00  0.00
  WS02006116WS02004401    1.00   0.02  0.00  0.00  0.98  0.00  0.00  0.00  0.00  0.00
  WS02006228WS02006109    1.00   0.00  0.00  0.00  1.00  0.00  0.00  0.00  0.00  0.00
  WS02006229WS02006228    1.00   0.00  0.00  0.00  0.99  0.00  0.00  0.01  0.00  0.00
  WS02006230WS02006229    1.00   0.00  0.00  0.00  0.99  0.00  0.00  0.01  0.00  0.00
  WS02006231WS02006230    1.00   0.00  0.00  0.00  0.23  0.00  0.77  0.00  0.00  0.00
  WS02006232WS02006231    1.00   0.00  0.00  0.00  0.98  0.00  0.01  0.00  0.00  0.00
  WS02006234WS02006232    1.00   0.00  0.00  0.00  1.00  0.00  0.00  0.00  0.29  0.00
  WS02006235WS02006234    1.00   0.00  0.00  0.00  0.65  0.00  0.35  0.00  0.00  0.00
  WS02006238WS02006235    1.00   0.00  0.00  0.00  1.00  0.00  0.00  0.00  0.00  0.00
  WS02006239WS02006238    1.00   0.00  0.00  0.00  1.00  0.00  0.00  0.00  0.44  0.00
  WS02006240WS02006239    1.00   0.00  0.00  0.00  0.49  0.00  0.00  0.51  0.03  0.00
  WS02006242WS02006240    1.00   0.00  0.00  0.00  0.98  0.00  0.01  0.00  0.00  0.00
  WS02006243WS02006242    1.00   0.00  0.00  0.00  0.98  0.00  0.00  0.01  0.61  0.00
  WS02006245WS02006243    1.00   0.00  0.00  0.00  0.59  0.00  0.00  0.41  0.01  0.00
  WS02006247WS02006245    1.00   0.00  0.00  0.00  0.98  0.00  0.00  0.02  0.00  0.00
  WS02006248WS02006247    1.00   0.00  0.00  0.00  0.99  0.00  0.00  0.01  0.26  0.00
  WS02006249WS02006248    1.00   0.00  0.00  0.00  0.38  0.00  0.62  0.00  0.00  0.00
  WS02006251WS02006249    1.00   0.00  0.00  0.00  0.99  0.01  0.00  0.00  0.64  0.00
  WS02006252WS02006251    1.00   0.30  0.38  0.00  0.00  0.00  0.31  0.00  0.00  0.00
  WS02006256WS02006235    1.00   0.00  0.00  0.00  1.00  0.00  0.00  0.00  0.00  0.00
  WSF200WS02003060        1.00   0.00  0.02  0.00  0.98  0.00  0.00  0.00  0.67  0.00
  YS02001580YS02001583    1.00   0.22  0.61  0.00  0.17  0.00  0.00  0.00  0.70  0.00
  YS02001583YS02001586    1.00   0.50  0.28  0.00  0.22  0.00  0.00  0.00  0.70  0.00
  YS02001586YS02001590    1.00   0.13  0.00  0.00  0.37  0.04  0.00  0.46  0.32  0.00
  YS02001590YS02001593    1.00   0.13  0.01  0.00  0.10  0.00  0.77  0.00  0.00  0.00
  YS02001593YS02001596    1.00   0.14  0.00  0.00  0.69  0.05  0.00  0.12  0.62  0.00
  YS02001596YS02001600    1.00   0.14  0.00  0.00  0.80  0.00  0.00  0.06  0.01  0.00
  YS02001600YS02001601    1.00   0.13  0.01  0.00  0.86  0.00  0.00  0.00  0.04  0.00
  YS02001601YS02001602    1.00   0.13  0.01  0.00  0.86  0.00  0.00  0.00  0.00  0.00
  YS02001602YS02001605    1.00   0.14  0.00  0.00  0.86  0.00  0.00  0.00  0.00  0.00
  YS02001605YS02001607    1.00   0.14  0.00  0.00  0.86  0.00  0.00  0.00  0.00  0.00
  YS02001607YS02001610    1.00   0.13  0.01  0.00  0.86  0.00  0.00  0.00  0.02  0.00
  YS02001610YS02001613    1.00   0.13  0.00  0.00  0.87  0.00  0.00  0.00  0.01  0.00
  YS02001613YS02001616    1.00   0.13  0.00  0.00  0.87  0.00  0.00  0.00  0.00  0.00
  YS02001616YS02001619    1.00   0.13  0.00  0.00  0.87  0.00  0.00  0.00  0.00  0.00
  YS02001619YS02001622    1.00   0.13  0.00  0.00  0.87  0.00  0.00  0.00  0.00  0.00
  YS02001622YS02001625    1.00   0.13  0.00  0.00  0.87  0.00  0.00  0.00  0.05  0.00
  YS02001625YS02001629    1.00   0.13  0.05  0.00  0.79  0.00  0.03  0.00  0.00  0.00
  YS02001629YS02163301    1.00   0.16  0.01  0.00  0.83  0.00  0.00  0.00  0.00  0.00
  YS02001633YS02163601    1.00   0.00  0.01  0.00  0.99  0.00  0.00  0.00  0.15  0.00
  YS02001641YS02001644    1.00   0.00  0.01  0.00  0.99  0.00  0.00  0.00  0.00  0.00
  YS02001644YS02001647    1.00   0.00  0.17  0.00  0.83  0.00  0.00  0.00  0.00  0.00
  YS02001647YS02001649    1.00   0.00  0.17  0.00  0.83  0.00  0.00  0.00  0.01  0.00
  YS02001649YS02001757    1.00   0.00  0.00  0.00  0.99  0.01  0.00  0.00  0.19  0.00
  YS02001652YS02001649    1.00   0.00  0.00  0.00  0.96  0.04  0.00  0.00  0.16  0.00
  YS02001655YS02001652    1.00   0.00  0.00  0.00  0.78  0.00  0.00  0.21  0.00  0.00
  YS02001658YS02001655    1.00   0.00  0.14  0.00  0.78  0.08  0.00  0.00  0.01  0.00
  YS02001661YS02001658    1.00   0.14  0.00  0.00  0.77  0.09  0.00  0.00  0.01  0.00
  YS02001664YS02001661    1.00   0.13  0.00  0.00  0.82  0.06  0.00  0.00  0.86  0.00
  YS02001745YS02001748    1.00   0.00  0.00  0.00  0.77  0.00  0.00  0.23  0.05  0.00
  YS02001748YS02001751    1.00   0.00  0.00  0.00  0.91  0.09  0.00  0.00  0.13  0.00
  YS02001751YS02001754    1.00   0.00  0.00  0.00  0.78  0.00  0.00  0.22  0.00  0.00
  YS02001754YS02001757    1.00   0.00  0.00  0.00  1.00  0.00  0.00  0.00  0.22  0.00
  YS02001757CaochengTiaoxuchi    1.00   0.00  0.00  0.00  0.98  0.02  0.00  0.00  0.20  0.00
  YS02001759YS02001757    1.00   0.00  0.00  0.00  1.00  0.00  0.00  0.00  0.06  0.00
  YS02001762YS02001759    1.00   0.00  0.00  0.00  1.00  0.00  0.00  0.00  0.04  0.00
  YS02001765YS02001762    1.00   0.00  0.00  0.00  1.00  0.00  0.00  0.00  0.16  0.00
  YS02001767YS02001765    1.00   0.00  0.00  0.00  1.00  0.00  0.00  0.00  0.00  0.00
  YS02001770YS02001767    1.00   0.00  0.00  0.00  1.00  0.00  0.00  0.00  0.00  0.00
  YS02001774YS02001770    1.00   0.00  0.13  0.00  0.86  0.00  0.00  0.00  0.03  0.00
  YS02001779YS02001774    1.00   0.00  0.00  0.00  1.00  0.00  0.00  0.00  0.18  0.00
  YS02001783YS02001784    1.00   0.00  0.18  0.00  0.82  0.00  0.00  0.00  0.14  0.00
  YS02001784YS02001785    1.00   0.00  0.00  0.00  1.00  0.00  0.00  0.00  0.18  0.00
  YS02001786YS02001788    1.00   0.00  0.00  0.00  0.96  0.04  0.00  0.00  0.00  0.00
  YS02001788YS02001790    1.00   0.00  0.00  0.00  0.82  0.18  0.00  0.00  0.33  0.00
  YS02001790YS02001791    1.00   0.00  0.00  0.00  0.64  0.36  0.00  0.00  0.03  0.00
  YS02001791YS02001793    1.00   0.00  0.00  0.00  0.63  0.37  0.00  0.00  0.00  0.00
  YS02001793JiankangQianchi    1.00   0.00  0.00  0.00  0.93  0.06  0.00  0.00  0.34  0.00
  YS02001882YS02001884    1.00   0.15  0.01  0.00  0.84  0.00  0.00  0.00  0.00  0.00
  YS02001884YS02001887    1.00   0.06  0.05  0.00  0.89  0.00  0.00  0.00  0.00  0.00
  YS02001887YS02001890    1.00   0.00  0.00  0.00  0.97  0.00  0.03  0.00  0.00  0.00
  YS02001890YS02001895    1.00   0.00  0.16  0.00  0.83  0.00  0.00  0.00  0.00  0.00
  YS02001895YS02001898    1.00   0.17  0.00  0.00  0.81  0.00  0.02  0.00  0.00  0.00
  YS02001898YS02001901    1.00   0.17  0.00  0.00  0.83  0.00  0.00  0.00  0.01  0.00
  YS02001901YS02001904    1.00   0.17  0.00  0.00  0.83  0.00  0.00  0.00  0.00  0.00
  YS02001904YS02001907    1.00   0.00  0.17  0.00  0.83  0.00  0.00  0.00  0.00  0.00
  YS02001907YS02006553    1.00   0.00  0.02  0.00  0.98  0.00  0.00  0.00  0.00  0.00
  YS02001910YS02001907    1.00   0.00  0.00  0.00  0.97  0.00  0.00  0.03  0.12  0.00
  YS02001915YS02001910    1.00   0.00  0.00  0.00  0.97  0.03  0.00  0.00  0.16  0.00
  YS02001918YS02001915    1.00   0.00  0.01  0.00  0.98  0.02  0.00  0.00  0.78  0.00
  YS02001920YS02001918    1.00   0.00  0.01  0.00  0.99  0.00  0.00  0.00  0.00  0.00
  YS02001923YS02001920    1.00   0.00  0.00  0.00  1.00  0.00  0.00  0.00  0.94  0.00
  YS02001926YS02001923    1.00   0.00  0.07  0.00  0.05  0.00  0.88  0.00  0.00  0.00
  YS02001929YS02001926    1.00   0.00  0.13  0.00  0.87  0.00  0.00  0.00  0.84  0.00
  YS02006553YS02006556    1.00   0.01  0.00  0.00  0.99  0.00  0.00  0.00  0.03  0.00
  YS02006556YS02006558    1.00   0.00  0.00  0.00  1.00  0.00  0.00  0.00  0.00  0.00
  YS02006558YS02006561    1.00   0.18  0.00  0.00  0.05  0.76  0.00  0.00  0.19  0.00
  YS02006561YS02001783    1.00   0.18  0.00  0.00  0.65  0.17  0.00  0.00  0.74  0.00
  YS02163301YS02001633    1.00   0.00  0.16  0.00  0.84  0.00  0.00  0.00  0.00  0.00
  YS02163601YS02164001    1.00   0.00  0.08  0.00  0.92  0.00  0.00  0.00  0.00  0.00
  YS02164001YS02001641    1.00   0.01  0.07  0.00  0.92  0.00  0.00  0.00  0.06  0.00
  
  
  *************************
  Conduit Surcharge Summary
  *************************
  
  ----------------------------------------------------------------------------
                                                           Hours        Hours 
                         --------- Hours Full --------   Above Full   Capacity
  Conduit                Both Ends  Upstream  Dnstream   Normal Flow   Limited
  ----------------------------------------------------------------------------
  WS02003072WS02003073        0.01      0.01      0.01      3.40         0.01
  WS02004404WS02004405        0.01      0.01      0.01      2.84         0.01
  WS02006109WS02006110        0.01      0.01      1.74      0.01         0.01
  WS02006110WS02006113        0.01      0.01      1.71      0.01         0.01
  WS02006111WS02006112        0.01      0.01      1.79      0.01         0.01
  WS02006228WS02006109        1.68      1.74      1.68      2.05         1.68
  WS02006229WS02006228        1.67      1.69      1.67      1.89         1.67
  WS02006230WS02006229        1.79      1.81      1.79      3.35         1.79
  WS02006231WS02006230        0.01      0.01      0.01      3.04         0.01
  WS02006232WS02006231        0.01      0.01      1.74      0.01         0.01
  WS02006234WS02006232        1.64      1.64      1.74      0.01         0.01
  WS02006235WS02006234        0.01      0.01      1.69      2.77         0.01
  WS02006238WS02006235        1.70      1.70      1.76      0.01         0.01
  WS02006239WS02006238        1.72      1.75      1.72      1.96         1.72
  WS02006240WS02006239        1.69      1.71      1.69      1.99         1.69
  WS02006242WS02006240        1.70      1.70      1.80      2.12         0.01
  WS02006243WS02006242        1.72      1.72      1.78      0.01         0.01
  WS02006245WS02006243        1.72      1.72      1.72      2.09         1.71
  WS02006247WS02006245        1.72      1.74      1.72      2.39         1.72
  WS02006248WS02006247        1.72      1.72      1.73      0.01         0.01
  WS02006249WS02006248        1.71      1.71      1.73      2.34         0.01
  WS02006251WS02006249        1.73      1.74      1.73      2.20         1.73
  WS02006252WS02006251        2.26      2.26      2.26      2.26         0.01
  WS02006256WS02006235        2.93      2.94      4.45      0.11         0.01
  YS02001580YS02001583        0.37      0.37      0.42      0.01         0.01
  YS02001583YS02001586        0.37      0.37      0.54      0.01         0.01
  YS02001586YS02001590        0.55      0.55      0.63      0.01         0.01
  YS02001590YS02001593        0.63      0.63      0.64      0.64         0.01
  YS02001593YS02001596        0.64      0.64      0.77      0.01         0.01
  YS02001596YS02001600        0.87      0.87      1.32      0.01         0.01
  YS02001600YS02001601        1.46      1.46      6.36      0.01         0.01
  YS02001601YS02001602        6.33      6.33      6.37      0.81         0.01
  YS02001602YS02001605        6.32      6.32      6.33      1.96         0.26
  YS02001605YS02001607        6.29      6.32      6.29      1.08         1.01
  YS02001607YS02001610        0.80      0.80      1.05      0.01         0.01
  YS02001610YS02001613        0.81      0.81      1.05      0.01         0.01
  YS02001613YS02001616        0.68      0.68      0.81      0.01         0.01
  YS02001616YS02001619        0.65      0.65      0.68      0.01         0.01
  YS02001619YS02001622        0.65      0.65      0.67      0.54         0.48
  YS02001622YS02001625        0.67      0.67      3.49      0.01         0.01
  YS02001625YS02001629        0.58      0.58      3.49      0.01         0.01
  YS02001629YS02163301        6.23      6.23      6.23      0.02         0.12
  YS02001633YS02163601        6.23      6.23      6.23      0.35         0.35
  YS02001641YS02001644        6.22      6.22      6.22      1.20         1.13
  YS02001644YS02001647        2.43      2.43      6.22      0.04         0.01
  YS02001647YS02001649        2.43      2.43      6.18      0.01         0.01
  YS02001649YS02001757        6.18      6.18      6.18      0.23         0.21
  YS02001652YS02001649        4.36      4.36      6.18      0.01         0.01
  YS02001655YS02001652        0.15      0.15      2.28      0.01         0.01
  YS02001658YS02001655        0.01      0.01      0.15      0.01         0.01
  YS02001661YS02001658        0.01      0.01      0.01      0.01         0.01
  YS02001748YS02001751        0.01      0.01      0.03      0.01         0.01
  YS02001751YS02001754        0.03      0.03      1.63      0.01         0.01
  YS02001754YS02001757        2.50      2.50      6.18      0.01         0.01
  YS02001757CaochengTiaoxuchi        6.11      6.18      6.11      0.23         0.13
  YS02001759YS02001757        6.17      6.17      6.18      0.01         0.01
  YS02001762YS02001759        6.17      6.17      6.17      0.01         0.02
  YS02001765YS02001762        6.17      6.17      6.17      0.01         0.01
  YS02001767YS02001765        6.17      6.17      6.17      0.01         0.02
  YS02001770YS02001767        6.17      6.17      6.17      0.34         0.63
  YS02001774YS02001770        6.17      6.17      6.17      0.01         0.01
  YS02001779YS02001774        0.90      0.90      6.17      0.01         0.01
  YS02001783YS02001784        0.49      0.50      0.50      0.46         0.42
  YS02001784YS02001785        0.48      0.50      0.48      0.65         0.48
  YS02001786YS02001788        0.47      0.48      0.47      0.57         0.47
  YS02001788YS02001790        0.47      0.47      5.03      0.01         0.01
  YS02001790YS02001791        5.03      5.03      5.03      0.25         0.23
  YS02001791YS02001793        5.03      5.03      5.06      0.01         0.01
  YS02001793JiankangQianchi        5.04      5.04      5.38      0.01         0.01
  YS02001882YS02001884        0.36      0.36      0.36      0.01         0.01
  YS02001884YS02001887        0.39      0.39      0.40      0.01         0.01
  YS02001887YS02001890        0.41      0.41      0.42      0.01         0.01
  YS02001890YS02001895        0.35      0.35      0.43      0.01         0.01
  YS02001895YS02001898        0.34      0.34      0.35      0.01         0.01
  YS02001898YS02001901        0.35      0.35      0.38      0.01         0.01
  YS02001901YS02001904        0.38      0.38      0.38      0.01         0.01
  YS02001904YS02001907        0.38      0.38      0.56      0.01         0.01
  YS02001907YS02006553        0.66      0.66      0.72      0.01         0.01
  YS02001910YS02001907        0.43      0.43      0.55      0.01         0.01
  YS02001915YS02001910        0.35      0.35      0.43      0.01         0.01
  YS02001918YS02001915        0.26      0.26      0.35      0.01         0.01
  YS02001920YS02001918        0.26      0.26      0.28      0.01         0.01
  YS02001923YS02001920        0.21      0.21      0.28      0.01         0.01
  YS02001926YS02001923        0.01      0.01      0.01      0.01         0.01
  YS02001929YS02001926        0.01      0.01      0.01      0.01         0.01
  YS02006553YS02006556        0.49      0.49      0.57      0.01         0.01
  YS02006556YS02006558        0.52      0.52      0.57      0.01         0.01
  YS02006558YS02006561        0.37      0.49      0.37      0.62         0.37
  YS02006561YS02001783        0.29      0.29      0.50      0.01         0.01
  YS02163301YS02001633        6.23      6.23      6.23      0.01         0.01
  YS02163601YS02164001        6.22      6.22      6.23      0.05         0.01
  YS02164001YS02001641        6.22      6.22      6.22      0.61         0.58
  
  
  ***************
  Pumping Summary
  ***************
  
  ---------------------------------------------------------------------------------------------------------
                                                  Min       Avg       Max     Total     Power    % Time Off
                        Percent   Number of      Flow      Flow      Flow    Volume     Usage    Pump Curve
  Pump                 Utilized   Start-Ups       LPS       LPS       LPS  10^6 ltr     Kw-hr    Low   High
  ---------------------------------------------------------------------------------------------------------
  CC-R1                    1.06           1      0.00    683.00    683.00     0.208      3.51    0.0  100.0
  CC-R2                    1.06           1      0.00    683.00    683.00     0.208      3.51    0.0  100.0
  CC-S1                   29.28           6      0.00    200.00    200.00     1.687      7.52    0.0   54.7
  CC-S2                   29.28           6      0.00    200.00    200.00     1.687      7.52    0.0   54.7
  JK-R1                    0.97           2      0.00    347.46   1000.00     0.078      0.47    0.0    0.0
  JK-R2                    2.02           3      0.00    694.63   1000.00     0.380      4.00    0.0    0.0
  JK-S                     2.02           3      0.00    208.42    300.00     0.114      1.68    0.0    0.0
  XR-1                   100.00           1      0.00     95.00     95.00     2.736     68.18    0.0    0.0
  XR-2                   100.00           1      0.00     95.00     95.00     2.736     68.18    0.0    0.0
  XR-3                   100.00           1      0.00     95.00     95.00     2.736     68.18    0.0    0.0
  XR-4                   100.00           1      0.00     95.00     95.00     2.736     68.18    0.0    0.0
  

  Analysis begun on:  Wed Nov  5 16:29:13 2025
  Analysis ended on:  Wed Nov  5 16:29:16 2025
  Total elapsed time: 00:00:03