
  EPA STORM WATER MANAGEMENT MODEL - VERSION 5.2 (Build 5.2.4)
  PYSWMM TOOLKIT API - VERSION v1.0 (2023-11-27)
  ------------------------------------------------------------

  WARNING 04: minimum elevation drop used for Conduit WS02004404WS02004405
  WARNING 03: negative offset ignored for Link YS02001904YS02001907
  
  ****************
  Analysis Options
  ****************
  Flow Units ............... LPS
  Process Models:
    Rainfall/Runoff ........ YES
    RDII ................... NO
    Snowmelt ............... NO
    Groundwater ............ NO
    Flow Routing ........... YES
    Ponding Allowed ........ NO
    Water Quality .......... NO
  Infiltration Method ...... HORTON
  Flow Routing Method ...... DYNWAVE
  Surcharge Method ......... EXTRAN
  Starting Date ............ 08/28/2015 08:00:00
  Ending Date .............. 08/28/2015 16:00:00
  Antecedent Dry Days ...... 8.0
  Report Time Step ......... 00:01:00
  Wet Time Step ............ 00:01:00
  Dry Time Step ............ 00:01:00
  Routing Time Step ........ 30.00 sec
  Variable Time Step ....... YES
  Maximum Trials ........... 8
  Number of Threads ........ 4
  Head Tolerance ........... 0.001500 m
  
  
  **************************        Volume         Depth
  Runoff Quantity Continuity     hectare-m            mm
  **************************     ---------       -------
  Initial LID Storage ......         0.049         1.488
  Total Precipitation ......         1.835        55.320
  Evaporation Loss .........         0.000         0.000
  Infiltration Loss ........         0.075         2.262
  Surface Runoff ...........         1.348        40.631
  Final Storage ............         0.462        13.939
  Continuity Error (%) .....        -0.043
  
  
  **************************        Volume        Volume
  Flow Routing Continuity        hectare-m      10^6 ltr
  **************************     ---------     ---------
  Dry Weather Inflow .......         0.602         6.020
  Wet Weather Inflow .......         1.348        13.478
  Groundwater Inflow .......         0.000         0.000
  RDII Inflow ..............         0.000         0.000
  External Inflow ..........         0.105         1.045
  External Outflow .........         1.549        15.487
  Flooding Loss ............         0.474         4.741
  Evaporation Loss .........         0.000         0.000
  Exfiltration Loss ........         0.000         0.000
  Initial Stored Volume ....         0.303         3.031
  Final Stored Volume ......         0.790         7.903
  Continuity Error (%) .....       -19.330
  
  
  *************************
  Highest Continuity Errors
  *************************
  Node YS02001774 (32.03%)
  Node YS02001583 (-10.15%)
  Node WS02006256 (-6.25%)
  Node YS02001884 (5.35%)
  Node YS02001754 (3.91%)
  
  
  ***************************
  Time-Step Critical Elements
  ***************************
  Link WS02006238WS02006235 (23.84%)
  Link WS02006235WS02006234 (17.19%)
  Link WS02001212WS02001213 (15.26%)
  Link WS02006252WS02006251 (13.14%)
  Link WS02003066WSF200 (9.72%)
  
  
  ********************************
  Highest Flow Instability Indexes
  ********************************
  Link WS02006113WS02006111 (37)
  Link WS02006256WS02006235 (32)
  Link WS02006238WS02006235 (31)
  Link WS02006111WS02006112 (26)
  Link WS02006239WS02006238 (24)
  
  
  *********************************
  Most Frequent Nonconverging Nodes
  *********************************
  Node CC-1 (16.04%)
  Node CC-2 (16.04%)
  Node JK-1 (16.04%)
  Node JK-2 (16.04%)
  Node WSC (16.04%)
  
  
  *************************
  Routing Time Step Summary
  *************************
  Minimum Time Step           :     0.01 sec
  Average Time Step           :     3.12 sec
  Maximum Time Step           :     6.46 sec
  % of Time in Steady State   :     0.00
  Average Iterations per Step :     3.59
  % of Steps Not Converging   :    16.04
  Time Step Frequencies       :
     30.000 - 13.228 sec      :     0.00 %
     13.228 -  5.833 sec      :    17.49 %
      5.833 -  2.572 sec      :    42.73 %
      2.572 -  1.134 sec      :    22.21 %
      1.134 -  0.500 sec      :    17.57 %
  
  
  ***************************
  Subcatchment Runoff Summary
  ***************************
  
  ------------------------------------------------------------------------------------------------------------------------------
                            Total      Total      Total      Total     Imperv       Perv      Total       Total     Peak  Runoff
                           Precip      Runon       Evap      Infil     Runoff     Runoff     Runoff      Runoff   Runoff   Coeff
  Subcatchment                 mm         mm         mm         mm         mm         mm         mm    10^6 ltr      LPS
  ------------------------------------------------------------------------------------------------------------------------------
  sub60                     55.32       0.00       0.00       1.36      36.64       3.76      40.40        0.53   331.35   0.730
  sub61                     55.32       0.00       0.00       2.09      36.61       5.60      42.21        0.77   480.13   0.763
  sub62                     55.32       0.00       0.00       0.93      39.03       2.55      41.58        1.14   659.17   0.752
  sub63                     55.32       0.00       0.00       3.80      31.36       9.33      40.69        0.92   530.47   0.736
  sub64                     55.32       0.00       0.00       1.83      35.70       4.64      40.34        0.97   531.89   0.729
  sub65                     55.32       0.00       0.00       1.68      38.53       4.23      42.76        1.18   619.62   0.773
  sub66                     55.32       0.00       0.00       4.40      30.32       8.33      38.64        1.80   786.36   0.698
  sub67                     55.32       0.00       0.00       0.92      40.02       2.64      42.66        0.79   516.11   0.771
  sub68                     55.32       0.00       0.00       1.60      35.34       4.30      39.64        1.09   653.40   0.716
  sub69                     55.32       0.00       0.00       1.45      37.19       5.13      42.31        1.57   805.98   0.765
  sub70                     55.32       0.00       0.00       4.80      29.78      10.60      40.38        1.17   456.65   0.730
  sub71                     55.32       0.00       0.00       0.85      35.45       2.31      37.76        0.99   542.02   0.683
  sub72                     55.32       0.00       0.00       0.81      38.29       2.15      40.44        0.56   277.61   0.731
  

  ***********************
  LID Performance Summary
  ***********************

  --------------------------------------------------------------------------------------------------------------------
                                         Total      Evap     Infil   Surface    Drain    Initial     Final  Continuity
                                        Inflow      Loss      Loss   Outflow   Outflow   Storage   Storage       Error
  Subcatchment      LID Control             mm        mm        mm        mm        mm        mm        mm           %
  --------------------------------------------------------------------------------------------------------------------
  sub60             GreenRoof            55.32      0.00      0.00      0.00      0.00      7.05     62.44       -0.12
  sub61             GreenRoof            55.32      0.00      0.00      0.00      0.00      7.05     62.44       -0.12
  sub62             GreenRoof            55.32      0.00      0.00      0.00      0.00      7.05     62.44       -0.12
  sub63             GreenRoof            55.32      0.00      0.00      0.00      0.00      7.05     62.44       -0.12
  sub64             GreenRoof            55.32      0.00      0.00      0.00      0.00      7.05     62.44       -0.12
  sub65             GreenRoof            55.32      0.00      0.00      0.00      0.00      7.05     62.44       -0.12
  sub66             GreenRoof            55.32      0.00      0.00      0.00      0.00      7.05     62.44       -0.12
  sub67             GreenRoof            55.32      0.00      0.00      0.00      0.00      7.05     62.44       -0.12
  sub68             GreenRoof            55.32      0.00      0.00      0.00      0.00      7.05     62.44       -0.12
  sub69             GreenRoof            55.32      0.00      0.00      0.00      0.00      7.05     62.44       -0.12
  sub70             GreenRoof            55.32      0.00      0.00      0.00      0.00      7.05     62.44       -0.12
  sub71             GreenRoof            55.32      0.00      0.00      0.00      0.00      7.05     62.44       -0.12
  sub72             GreenRoof            55.32      0.00      0.00      0.00      0.00      7.05     62.44       -0.12
  
  ******************
  Node Depth Summary
  ******************
  
  ---------------------------------------------------------------------------------
                                 Average  Maximum  Maximum  Time of Max    Reported
                                   Depth    Depth      HGL   Occurrence   Max Depth
  Node                 Type       Meters   Meters   Meters  days hr:min      Meters
  ---------------------------------------------------------------------------------
  WS02001211           JUNCTION     0.76     0.78     5.62     0  03:05        0.78
  WS02001212           JUNCTION     0.46     0.49     5.55     0  03:01        0.49
  WS02001213           JUNCTION     0.68     0.73     5.49     0  03:01        0.73
  WS02003059           JUNCTION     0.73     0.78     5.47     0  03:00        0.78
  WS02003060           JUNCTION     0.38     0.47     5.41     0  02:59        0.47
  WS02003066           JUNCTION     0.15     0.27     5.82     0  02:59        0.27
  WS02003067           JUNCTION     0.43     0.65     5.97     0  02:58        0.65
  WS02003069           JUNCTION     0.42     0.54     5.12     0  03:00        0.54
  WS02003072           JUNCTION     0.49     0.60     4.97     0  03:01        0.60
  WS02003073           JUNCTION     0.29     0.37     4.43     0  02:55        0.37
  WS02004138           JUNCTION     0.19     0.20     7.45     0  00:00        0.19
  WS02004139           JUNCTION     0.71     0.73     5.64     0  03:02        0.73
  WS02004401           JUNCTION     0.50     0.75     6.75     0  02:21        0.75
  WS02004402           JUNCTION     0.54     0.78     6.74     0  02:21        0.78
  WS02004403           JUNCTION     0.56     0.80     6.73     0  02:22        0.80
  WS02004404           JUNCTION     0.64     0.88     6.73     0  02:04        0.88
  WS02004405           JUNCTION     0.63     0.88     6.73     0  02:04        0.87
  WS02004406           JUNCTION     0.65     0.88     6.71     0  02:22        0.88
  WS02004407           JUNCTION     0.13     0.26     6.57     0  02:04        0.26
  WS02004409           JUNCTION     0.29     0.57     6.34     0  02:57        0.57
  WS02004410           JUNCTION     0.32     0.59     6.31     0  03:23        0.59
  WS02004411           JUNCTION     0.35     0.61     6.29     0  02:57        0.61
  WS02004412           JUNCTION     0.37     0.62     6.26     0  03:24        0.62
  WS02004413           JUNCTION     0.53     0.79     6.26     0  02:58        0.79
  WS02006109           JUNCTION     0.55     0.84     7.45     0  01:54        0.84
  WS02006110           JUNCTION     0.56     0.82     7.41     0  01:49        0.82
  WS02006111           JUNCTION     0.14     0.25     6.96     0  03:21        0.25
  WS02006112           JUNCTION     0.65     0.93     6.82     0  03:21        0.93
  WS02006113           JUNCTION     0.21     0.39     7.29     0  01:48        0.39
  WS02006115           JUNCTION     0.38     0.65     6.78     0  02:53        0.65
  WS02006116           JUNCTION     0.47     0.73     6.77     0  02:21        0.73
  WS02006228           JUNCTION     0.54     0.85     7.50     0  01:54        0.84
  WS02006229           JUNCTION     0.51     0.83     7.52     0  01:54        0.83
  WS02006230           JUNCTION     0.49     0.86     7.60     0  02:01        0.86
  WS02006231           JUNCTION     0.30     0.60     7.72     0  02:01        0.60
  WS02006232           JUNCTION     0.42     0.75     7.79     0  01:57        0.75
  WS02006234           JUNCTION     0.33     0.71     7.87     0  02:00        0.71
  WS02006235           JUNCTION     0.37     0.77     7.93     0  01:57        0.77
  WS02006238           JUNCTION     0.39     0.81     7.95     0  01:57        0.80
  WS02006239           JUNCTION     0.37     0.81     8.02     0  02:08        0.80
  WS02006240           JUNCTION     0.35     0.79     8.09     0  02:32        0.79
  WS02006242           JUNCTION     0.42     0.90     8.17     0  02:06        0.90
  WS02006243           JUNCTION     0.36     0.85     8.27     0  02:05        0.84
  WS02006245           JUNCTION     0.37     0.86     8.34     0  02:25        0.85
  WS02006247           JUNCTION     0.39     0.96     8.46     0  02:00        0.96
  WS02006248           JUNCTION     0.37     0.86     8.45     0  02:06        0.85
  WS02006249           JUNCTION     0.40     1.09     8.69     0  02:05        1.09
  WS02006251           JUNCTION     0.40     0.91     8.58     0  02:00        0.91
  WS02006252           JUNCTION     0.29     1.50     9.74     0  00:00        0.63
  WS02006256           JUNCTION     0.60     2.35     9.28     0  00:00        2.35
  WSF200               JUNCTION     0.12     0.25     5.48     0  02:59        0.25
  YS02001580           JUNCTION     0.07     1.05     9.59     0  01:47        0.77
  YS02001583           JUNCTION     0.11     1.14     9.64     0  01:47        0.82
  YS02001586           JUNCTION     0.17     1.13     9.30     0  01:47        1.13
  YS02001590           JUNCTION     0.26     1.40     9.26     0  01:47        1.37
  YS02001593           JUNCTION     0.21     1.39     9.26     0  02:05        1.39
  YS02001596           JUNCTION     0.45     1.70     9.12     0  01:47        1.65
  YS02001600           JUNCTION     0.70     1.87     9.00     0  01:47        1.87
  YS02001601           JUNCTION     0.95     2.06     8.90     0  01:46        2.06
  YS02001602           JUNCTION     0.87     1.87     8.77     0  01:47        1.87
  YS02001605           JUNCTION     0.84     1.78     8.68     0  01:47        1.78
  YS02001607           JUNCTION     0.84     1.68     8.53     0  02:05        1.68
  YS02001610           JUNCTION     0.89     1.68     8.48     0  01:47        1.68
  YS02001613           JUNCTION     0.85     1.69     8.53     0  02:08        1.69
  YS02001616           JUNCTION     0.78     1.61     8.52     0  02:05        1.61
  YS02001619           JUNCTION     0.76     1.61     8.54     0  02:05        1.61
  YS02001622           JUNCTION     0.78     1.59     8.49     0  02:08        1.59
  YS02001625           JUNCTION     1.04     1.78     8.38     0  01:47        1.78
  YS02001629           JUNCTION     1.06     1.85     8.40     0  01:47        1.85
  YS02001633           JUNCTION     1.15     2.08     8.53     0  01:51        2.08
  YS02001641           JUNCTION     1.13     2.09     8.53     0  02:00        2.09
  YS02001644           JUNCTION     1.13     1.92     8.35     0  01:51        1.92
  YS02001647           JUNCTION     0.95     1.86     8.47     0  01:51        1.86
  YS02001649           JUNCTION     1.12     1.99     8.38     0  01:51        1.99
  YS02001652           JUNCTION     0.94     1.82     8.42     0  01:51        1.82
  YS02001655           JUNCTION     0.73     1.62     8.47     0  01:51        1.46
  YS02001658           JUNCTION     0.50     1.48     8.62     0  01:51        1.06
  YS02001661           JUNCTION     0.29     0.83     8.24     0  01:51        0.83
  YS02001664           JUNCTION     0.05     0.28     8.20     0  01:50        0.28
  YS02001745           JUNCTION     0.18     0.54     8.05     0  01:51        0.50
  YS02001748           JUNCTION     0.53     0.98     8.06     0  01:51        0.90
  YS02001751           JUNCTION     0.69     1.36     8.24     0  01:50        1.09
  YS02001754           JUNCTION     0.91     1.48     8.09     0  01:50        1.35
  YS02001757           JUNCTION     1.21     1.77     8.03     0  01:51        1.72
  YS02001759           JUNCTION     1.12     1.72     8.09     0  01:51        1.63
  YS02001762           JUNCTION     1.09     1.71     8.11     0  01:51        1.61
  YS02001765           JUNCTION     1.05     1.69     8.14     0  01:51        1.58
  YS02001767           JUNCTION     1.02     1.69     8.18     0  01:51        1.56
  YS02001770           JUNCTION     1.02     1.84     8.33     0  01:49        1.59
  YS02001774           JUNCTION     1.09     1.95     8.37     0  01:49        1.68
  YS02001779           JUNCTION     0.85     1.68     8.37     0  01:49        1.42
  YS02001783           JUNCTION     0.48     1.74     7.88     0  01:49        1.51
  YS02001784           JUNCTION     0.54     1.66     7.73     0  01:49        1.43
  YS02001786           JUNCTION     0.54     1.63     7.66     0  01:49        1.33
  YS02001788           JUNCTION     0.56     1.59     7.57     0  01:49        1.20
  YS02001790           JUNCTION     0.82     1.69     7.33     0  01:49        1.59
  YS02001791           JUNCTION     0.93     2.39     7.86     0  01:48        1.41
  YS02001793           JUNCTION     1.42     2.23     7.06     0  01:48        1.82
  YS02001882           JUNCTION     0.27     1.73     8.45     0  01:48        1.65
  YS02001884           JUNCTION     0.36     1.81     8.43     0  01:48        1.74
  YS02001887           JUNCTION     0.44     1.85     8.38     0  01:48        1.81
  YS02001890           JUNCTION     0.47     1.81     8.32     0  01:48        1.81
  YS02001895           JUNCTION     0.24     1.57     8.31     0  01:50        1.55
  YS02001898           JUNCTION     0.25     1.56     8.29     0  01:49        1.56
  YS02001901           JUNCTION     0.36     1.67     8.28     0  01:50        1.66
  YS02001904           JUNCTION     0.34     1.64     8.27     0  01:51        1.64
  YS02001907           JUNCTION     0.66     1.96     8.25     0  01:49        1.96
  YS02001910           JUNCTION     0.46     2.02     8.53     0  01:50        2.02
  YS02001915           JUNCTION     0.27     1.97     8.69     0  01:50        1.97
  YS02001918           JUNCTION     0.14     1.81     8.88     0  01:49        1.81
  YS02001920           JUNCTION     0.21     2.14     9.15     0  01:49        2.14
  YS02001923           JUNCTION     0.10     2.03     9.29     0  01:49        2.03
  YS02001926           JUNCTION     0.13     1.90     9.35     0  01:49        1.90
  YS02001929           JUNCTION     0.07     1.73     9.42     0  01:49        1.59
  YS02006553           JUNCTION     0.66     2.06     8.34     0  01:49        1.99
  YS02006556           JUNCTION     0.64     2.14     8.45     0  01:49        1.95
  YS02006558           JUNCTION     0.68     2.21     8.48     0  01:49        2.02
  YS02006561           JUNCTION     0.15     1.46     8.12     0  01:49        1.10
  YS02163301           JUNCTION     1.09     1.96     8.47     0  01:51        1.96
  YS02163601           JUNCTION     1.18     2.08     8.48     0  01:51        2.08
  YS02164001           JUNCTION     1.12     2.10     8.56     0  01:51        2.10
  CC-1                 OUTFALL      0.00     0.00     0.00     0  00:00        0.00
  CC-2                 OUTFALL      0.00     0.00     0.00     0  00:00        0.00
  JK-1                 OUTFALL      0.00     0.00     0.00     0  00:00        0.00
  JK-2                 OUTFALL      0.00     0.00     0.00     0  00:00        0.00
  WSC                  OUTFALL      0.29     0.37     1.04     0  02:55        0.37
  CC-storage           STORAGE      1.83     2.30     7.80     0  02:43        2.30
  JK-storage           STORAGE      4.75     5.80     6.60     0  01:49        5.80
  XR-storage           STORAGE      0.25     5.00     3.00     0  00:00        4.91
  
  
  *******************
  Node Inflow Summary
  *******************
  
  -------------------------------------------------------------------------------------------------
                                  Maximum  Maximum                  Lateral       Total        Flow
                                  Lateral    Total  Time of Max      Inflow      Inflow     Balance
                                   Inflow   Inflow   Occurrence      Volume      Volume       Error
  Node                 Type           LPS      LPS  days hr:min    10^6 ltr    10^6 ltr     Percent
  -------------------------------------------------------------------------------------------------
  WS02001211           JUNCTION      7.35   389.13     0  03:34       0.212        11.1       0.348
  WS02001212           JUNCTION      0.00   390.85     0  03:36           0        11.1       0.207
  WS02001213           JUNCTION      0.00   392.60     0  03:35           0        11.1       0.238
  WS02003059           JUNCTION      0.00   395.65     0  03:35           0          11       0.329
  WS02003060           JUNCTION     16.53   816.10     0  02:59       0.476          15       0.143
  WS02003066           JUNCTION      0.00   411.89     0  02:58           0        3.49       0.035
  WS02003067           JUNCTION      0.00   411.87     0  02:58           0         3.5       0.115
  WS02003069           JUNCTION      0.32   816.37     0  02:59     0.00922        14.9       0.153
  WS02003072           JUNCTION      0.00   816.35     0  03:00           0        14.9       0.199
  WS02003073           JUNCTION      1.82   818.16     0  03:01      0.0524        14.9       0.213
  WS02004138           JUNCTION      0.00   380.00     0  00:00           0        10.9       0.059
  WS02004139           JUNCTION      0.32   395.52     0  00:00     0.00924        10.9       0.407
  WS02004401           JUNCTION      0.00   412.08     0  02:55           0        3.59       0.294
  WS02004402           JUNCTION      0.00   412.00     0  02:21           0        3.58       0.292
  WS02004403           JUNCTION      0.00   412.05     0  02:56           0        3.57       0.281
  WS02004404           JUNCTION      0.16   412.17     0  02:56     0.00467        3.57       0.246
  WS02004405           JUNCTION      0.04   412.16     0  02:22      0.0011        3.56       0.333
  WS02004406           JUNCTION      0.00   412.22     0  02:22           0        3.55       0.578
  WS02004407           JUNCTION      0.00   412.02     0  02:56           0        3.53       0.025
  WS02004409           JUNCTION      0.00   411.98     0  02:04           0        3.53       0.063
  WS02004410           JUNCTION      0.00   411.97     0  02:57           0        3.52       0.111
  WS02004411           JUNCTION      0.00   411.93     0  02:57           0        3.52       0.145
  WS02004412           JUNCTION      0.00   411.95     0  02:58           0        3.52       0.199
  WS02004413           JUNCTION      0.00   411.96     0  02:58           0        3.51       0.358
  WS02006109           JUNCTION      1.23   412.36     0  01:52      0.0354        3.65       0.188
  WS02006110           JUNCTION      0.00   411.87     0  01:53           0        3.64       0.270
  WS02006111           JUNCTION      0.00   423.29     0  02:27           0        3.63       0.054
  WS02006112           JUNCTION      0.00   413.27     0  03:21           0        3.63       0.524
  WS02006113           JUNCTION      0.00   411.99     0  01:58           0        3.63       0.092
  WS02006115           JUNCTION      0.00   412.23     0  02:20           0        3.61       0.209
  WS02006116           JUNCTION      0.00   412.08     0  02:21           0         3.6       0.151
  WS02006228           JUNCTION      0.00   412.45     0  01:54           0        3.62       0.098
  WS02006229           JUNCTION      0.00   410.87     0  01:53           0        3.62       0.239
  WS02006230           JUNCTION     10.28   410.73     0  02:00       0.296        3.63       0.214
  WS02006231           JUNCTION      0.00   400.56     0  02:00           0        3.33      -0.073
  WS02006232           JUNCTION      0.00   400.57     0  02:00           0        3.36       0.660
  WS02006234           JUNCTION      0.00   401.80     0  02:00           0        3.35      -0.217
  WS02006235           JUNCTION      0.00   402.38     0  02:00           0        3.37       0.513
  WS02006238           JUNCTION      0.00   401.77     0  02:00           0        3.34      -0.454
  WS02006239           JUNCTION      0.00   401.44     0  01:52           0        3.33      -0.236
  WS02006240           JUNCTION      0.00   401.43     0  02:00           0        3.32       0.017
  WS02006242           JUNCTION      0.00   401.54     0  02:04           0        3.33       0.257
  WS02006243           JUNCTION      0.00   402.20     0  02:05           0        3.34       0.222
  WS02006245           JUNCTION      0.00   403.79     0  02:05           0        3.37       0.840
  WS02006247           JUNCTION      0.00   401.23     0  02:00           0        3.37       0.195
  WS02006248           JUNCTION      0.00   404.83     0  02:05           0        3.38       0.219
  WS02006249           JUNCTION      0.00   473.22     0  04:37           0        3.41       0.901
  WS02006251           JUNCTION      0.08   404.65     0  04:26     0.00222        3.42       0.129
  WS02006252           JUNCTION      0.00   400.00     0  00:00           0        3.41      -0.097
  WS02006256           JUNCTION      0.00   300.00     0  00:00           0      0.0245      -5.884
  WSF200               JUNCTION      0.00   411.88     0  02:59           0        3.49       0.016
  YS02001580           JUNCTION      0.00   142.89     0  01:46           0     0.00466       1.394
  YS02001583           JUNCTION      0.00   241.95     0  01:47           0      0.0151      -9.212
  YS02001586           JUNCTION    456.65   456.68     0  01:53        1.17        1.18       0.133
  YS02001590           JUNCTION      0.00   321.27     0  02:05           0        1.07       0.048
  YS02001593           JUNCTION      0.00   318.88     0  01:51           0        1.07       0.039
  YS02001596           JUNCTION      0.00   318.59     0  01:51           0        1.08       0.175
  YS02001600           JUNCTION      0.00   318.36     0  01:51           0        1.09       0.616
  YS02001601           JUNCTION    805.98  1124.33     0  01:51        1.57        2.66       0.338
  YS02001602           JUNCTION      0.00   557.71     0  01:46           0        1.92       0.481
  YS02001605           JUNCTION      0.00   557.82     0  01:46           0        1.83       0.772
  YS02001607           JUNCTION      0.00   557.25     0  01:46           0        1.82       1.075
  YS02001610           JUNCTION      0.00   542.42     0  01:46           0        1.83       1.161
  YS02001613           JUNCTION      0.00   549.34     0  01:46           0        1.62       1.346
  YS02001616           JUNCTION      0.00   555.28     0  01:46           0        1.63       1.186
  YS02001619           JUNCTION    786.36   979.36     0  01:46         1.8        3.43       0.551
  YS02001622           JUNCTION      0.00   943.16     0  01:46           0        3.42       0.757
  YS02001625           JUNCTION      0.00   939.94     0  01:47           0        3.41       1.319
  YS02001629           JUNCTION      0.00   941.40     0  01:47           0        3.01       0.669
  YS02001633           JUNCTION    619.82  1449.17     0  01:48        1.18        4.15       0.772
  YS02001641           JUNCTION      0.00  1448.63     0  01:48           0        4.08       0.503
  YS02001644           JUNCTION    531.93  1908.56     0  01:48        0.97        5.03       0.508
  YS02001647           JUNCTION      0.00  1908.59     0  01:48           0           5       0.549
  YS02001649           JUNCTION      0.00  2196.50     0  01:49           0        5.88       0.636
  YS02001652           JUNCTION      0.00   594.79     0  01:52           0       0.952       2.360
  YS02001655           JUNCTION      0.15   592.90     0  01:52     0.00443       0.966       1.733
  YS02001658           JUNCTION      0.00   692.89     0  01:51           0       0.972       1.034
  YS02001661           JUNCTION      0.00   536.27     0  01:50           0       0.951       0.461
  YS02001664           JUNCTION    530.47   530.47     0  01:51       0.924       0.924      -0.041
  YS02001745           JUNCTION    331.35   331.35     0  01:50       0.531       0.568       0.697
  YS02001748           JUNCTION      0.04   487.86     0  01:52      0.0013       0.592       1.610
  YS02001751           JUNCTION      0.01   425.95     0  01:54    0.000317       0.581       3.305
  YS02001754           JUNCTION      0.26   373.50     0  01:52     0.00749        0.58       4.067
  YS02001757           JUNCTION      0.00  3294.91     0  01:52           0        8.12       1.187
  YS02001759           JUNCTION    480.17  1195.92     0  01:49       0.776        1.82       1.241
  YS02001762           JUNCTION      0.00   710.15     0  01:49           0        1.06       2.009
  YS02001765           JUNCTION      0.00   702.46     0  01:49           0        1.08       2.335
  YS02001767           JUNCTION      0.54   695.73     0  01:49      0.0154        1.12       3.264
  YS02001770           JUNCTION    659.32   677.91     0  01:50        1.14        1.18       2.737
  YS02001774           JUNCTION      0.00   396.09     0  01:49           0      0.0799      47.119
  YS02001779           JUNCTION      0.01   396.29     0  01:49    0.000144      0.0315      78.531
  YS02001783           JUNCTION      0.00  1103.51     0  01:48           0        3.04       0.235
  YS02001784           JUNCTION      1.06  1104.45     0  01:48      0.0305        3.06       0.354
  YS02001786           JUNCTION      0.06  1103.54     0  01:48     0.00162        3.05       0.449
  YS02001788           JUNCTION      0.07  1092.52     0  01:49     0.00204        3.04       0.445
  YS02001790           JUNCTION      0.15   999.10     0  01:48     0.00446        3.03       0.574
  YS02001791           JUNCTION      0.00   994.70     0  01:49           0        3.01       0.463
  YS02001793           JUNCTION      0.00   997.77     0  01:49           0           3       0.532
  YS02001882           JUNCTION      0.00    63.70     0  01:48           0       0.013       7.105
  YS02001884           JUNCTION      0.00   126.96     0  01:47           0      0.0497       5.654
  YS02001887           JUNCTION    516.56   520.27     0  01:50       0.806       0.841       0.547
  YS02001890           JUNCTION      0.00   521.82     0  01:50           0       0.798       0.676
  YS02001895           JUNCTION      0.00   522.77     0  01:48           0       0.792       0.238
  YS02001898           JUNCTION      0.00   530.46     0  01:48           0        0.79       0.073
  YS02001901           JUNCTION      0.00   542.64     0  01:48           0       0.792       0.433
  YS02001904           JUNCTION      0.00   548.63     0  01:48           0       0.797       0.412
  YS02001907           JUNCTION      0.00  1506.39     0  01:50           0        2.42       0.762
  YS02001910           JUNCTION      0.00  1001.26     0  01:50           0        1.63       0.456
  YS02001915           JUNCTION    542.04  1000.57     0  01:50       0.988        1.67       0.101
  YS02001918           JUNCTION      0.00   533.40     0  01:48           0       0.717       0.065
  YS02001920           JUNCTION      2.87   477.52     0  01:49      0.0827       0.696       0.021
  YS02001923           JUNCTION      0.04   684.78     0  01:49     0.00109       0.596      -0.274
  YS02001926           JUNCTION      0.05   832.25     0  01:49      0.0015       0.577      -0.123
  YS02001929           JUNCTION    277.61   692.12     0  01:49       0.556       0.561      -0.223
  YS02006553           JUNCTION      0.00   699.80     0  02:05           0        1.97       0.616
  YS02006556           JUNCTION      0.00   680.31     0  02:05           0        1.98       0.450
  YS02006558           JUNCTION    654.28  1146.36     0  01:48        1.12        3.07       0.130
  YS02006561           JUNCTION      0.00  1148.35     0  01:48           0        3.04      -0.020
  YS02163301           JUNCTION      0.00   927.22     0  01:48           0           3       0.808
  YS02163601           JUNCTION      0.11  1448.92     0  01:48     0.00317        4.12       0.721
  YS02164001           JUNCTION      0.00  1448.33     0  01:48           0        4.09       0.466
  CC-1                 OUTFALL       0.00   683.00     0  00:00           0       0.208       0.000
  CC-2                 OUTFALL       0.00   683.00     0  00:00           0       0.208       0.000
  JK-1                 OUTFALL       0.00  1000.00     0  00:00           0      0.0791       0.000
  JK-2                 OUTFALL       0.00  1000.00     0  00:00           0      0.0791       0.000
  WSC                  OUTFALL       0.00   818.15     0  02:55           0        14.9       0.000
  CC-storage           STORAGE       0.00  3293.00     0  01:52           0        10.1       0.378
  JK-storage           STORAGE       0.00  1000.93     0  01:49           0        3.14       0.508
  XR-storage           STORAGE     200.00   200.00     0  00:00        5.76        6.36     -41.886
  
  
  **********************
  Node Surcharge Summary
  **********************
  
  Surcharging occurs when water rises above the top of the highest conduit.
  ---------------------------------------------------------------------
                                               Max. Height   Min. Depth
                                   Hours       Above Crown    Below Rim
  Node                 Type      Surcharged         Meters       Meters
  ---------------------------------------------------------------------
  WS02006109           JUNCTION        1.69          0.017        1.803
  WS02006228           JUNCTION        1.68          0.021        2.179
  WS02006229           JUNCTION        1.70          0.030        2.420
  WS02006232           JUNCTION        1.75          0.051        1.429
  WS02006235           JUNCTION        1.69          0.057        1.233
  WS02006238           JUNCTION        1.72          0.090        1.340
  WS02006239           JUNCTION        1.70          0.068        1.222
  WS02006240           JUNCTION        1.70          0.082        1.308
  WS02006242           JUNCTION        1.78          0.175        0.645
  WS02006243           JUNCTION        1.72          0.135        0.635
  WS02006245           JUNCTION        1.72          0.147        0.703
  WS02006247           JUNCTION        1.73          0.255        0.505
  WS02006248           JUNCTION        1.71          0.139        0.241
  WS02006249           JUNCTION        1.73          0.390        0.000
  WS02006252           JUNCTION        2.26          1.100        0.000
  WS02006256           JUNCTION        4.34          2.050        0.000
  YS02001580           JUNCTION        0.42          0.450        0.000
  YS02001583           JUNCTION        0.42          0.500        0.000
  YS02001586           JUNCTION        0.62          0.510        0.000
  YS02001590           JUNCTION        0.72          0.750        0.000
  YS02001593           JUNCTION        0.72          0.774        0.066
  YS02001596           JUNCTION        0.95          0.973        0.097
  YS02001600           JUNCTION        1.50          1.190        0.000
  YS02001601           JUNCTION        6.39          1.440        0.000
  YS02001602           JUNCTION        6.36          1.270        0.000
  YS02001605           JUNCTION        6.34          1.180        0.000
  YS02001607           JUNCTION        1.27          0.680        0.000
  YS02001610           JUNCTION        1.42          0.680        0.000
  YS02001613           JUNCTION        1.27          0.687        0.013
  YS02001616           JUNCTION        1.07          0.610        0.000
  YS02001619           JUNCTION        1.02          0.610        0.000
  YS02001622           JUNCTION        1.09          0.589        0.031
  YS02001625           JUNCTION        6.24          0.780        0.000
  YS02001629           JUNCTION        0.98          0.470        0.000
  YS02001633           JUNCTION        6.25          1.060        0.000
  YS02001641           JUNCTION        6.23          1.092        0.008
  YS02001644           JUNCTION        6.23          0.920        0.000
  YS02001647           JUNCTION        6.19          0.860        0.040
  YS02001649           JUNCTION        6.19          0.992        0.058
  YS02001652           JUNCTION        6.17          0.791        0.339
  YS02001655           JUNCTION        0.51          0.621        0.579
  YS02001658           JUNCTION        0.02          0.476        0.824
  YS02001751           JUNCTION        0.06          0.365        0.835
  YS02001754           JUNCTION        6.15          0.431        0.719
  YS02001757           JUNCTION        6.19          0.770        0.440
  YS02001759           JUNCTION        6.18          0.723        0.487
  YS02001762           JUNCTION        6.18          0.709        0.441
  YS02001765           JUNCTION        6.18          0.689        0.411
  YS02001767           JUNCTION        6.18          0.692        0.338
  YS02001770           JUNCTION        6.18          0.808        0.112
  YS02001774           JUNCTION        6.18          0.952        0.098
  YS02001779           JUNCTION        3.17          0.680        0.000
  YS02001783           JUNCTION        0.54          0.938        0.662
  YS02001784           JUNCTION        0.54          0.860        0.630
  YS02001786           JUNCTION        0.52          0.834        0.596
  YS02001788           JUNCTION        0.51          0.791        0.689
  YS02001790           JUNCTION        6.18          0.889        0.268
  YS02001791           JUNCTION        6.19          1.586        0.334
  YS02001793           JUNCTION        6.20          1.226        1.374
  YS02001882           JUNCTION        0.38          0.732        0.098
  YS02001884           JUNCTION        0.40          0.750        0.120
  YS02001887           JUNCTION        0.43          0.795        0.155
  YS02001890           JUNCTION        0.44          0.760        0.000
  YS02001895           JUNCTION        0.37          0.566        0.184
  YS02001898           JUNCTION        0.36          0.530        0.210
  YS02001901           JUNCTION        0.41          0.674        0.196
  YS02001904           JUNCTION        0.40          0.641        0.209
  YS02001907           JUNCTION        0.60          0.950        0.000
  YS02001910           JUNCTION        0.46          1.018        0.082
  YS02001915           JUNCTION        0.38          0.970        0.030
  YS02001918           JUNCTION        0.28          0.810        0.000
  YS02001920           JUNCTION        0.31          1.140        0.000
  YS02001923           JUNCTION        0.01          0.820        0.000
  YS02001926           JUNCTION        0.01          0.900        0.000
  YS02001929           JUNCTION        0.01          0.725        0.055
  YS02006553           JUNCTION        0.61          1.059        0.131
  YS02006556           JUNCTION        0.53          1.102        0.248
  YS02006558           JUNCTION        0.53          1.110        0.290
  YS02006561           JUNCTION        0.31          0.659        0.491
  YS02163301           JUNCTION        6.24          0.958        0.072
  YS02163601           JUNCTION        6.25          1.080        0.000
  YS02164001           JUNCTION        6.23          1.100        0.000
  
  
  *********************
  Node Flooding Summary
  *********************
  
  Flooding refers to all water that overflows a node, whether it ponds or not.
  --------------------------------------------------------------------------
                                                             Total   Maximum
                                 Maximum   Time of Max       Flood    Ponded
                        Hours       Rate    Occurrence      Volume     Depth
  Node                 Flooded       LPS   days hr:min    10^6 ltr    Meters
  --------------------------------------------------------------------------
  WS02006249              0.01      0.32      0  02:05       0.000     0.000
  WS02006252              0.01    245.63      0  00:00       0.000     0.000
  WS02006256              0.02    293.19      0  00:00       0.005     0.000
  YS02001580              0.01     75.48      0  01:47       0.000     0.000
  YS02001583              0.01    129.59      0  01:47       0.000     0.000
  YS02001586              0.31    139.31      0  01:53       0.093     0.000
  YS02001590              0.01      1.40      0  01:47       0.000     0.000
  YS02001600              0.01      5.75      0  01:47       0.000     0.000
  YS02001601              0.54    726.47      0  01:51       0.724     0.000
  YS02001602              0.49     62.06      0  02:00       0.088     0.000
  YS02001605              0.01      3.85      0  01:47       0.000     0.000
  YS02001607              0.01      0.52      0  02:05       0.000     0.000
  YS02001610              0.36    289.85      0  01:54       0.213     0.000
  YS02001616              0.01     10.00      0  02:05       0.000     0.000
  YS02001619              0.01     22.22      0  02:05       0.000     0.000
  YS02001625              0.34    741.05      0  01:52       0.363     0.000
  YS02001629              0.03    234.62      0  01:47       0.003     0.000
  YS02001633              0.01      0.51      0  01:51       0.000     0.000
  YS02001644              0.01     26.54      0  01:51       0.000     0.000
  YS02001779              0.01    318.31      0  01:49       0.003     0.000
  YS02001890              0.02     25.34      0  01:49       0.001     0.000
  YS02001907              0.24   1191.44      0  01:50       0.435     0.000
  YS02001918              0.01    265.21      0  01:50       0.004     0.000
  YS02001920              0.01     96.50      0  01:49       0.000     0.000
  YS02001923              0.01    112.52      0  01:49       0.000     0.000
  YS02001926              0.01    448.57      0  01:49       0.003     0.000
  YS02163601              0.01      2.01      0  01:51       0.000     0.000
  YS02164001              0.01      3.42      0  01:51       0.000     0.000
  CC-storage              0.32    259.36      0  02:43       0.159     0.000
  JK-storage              6.15    998.56      0  01:49       2.646     0.000
  
  
  **********************
  Storage Volume Summary
  **********************
  
  ------------------------------------------------------------------------------------------------
                         Average    Avg   Evap  Exfil     Maximum    Max    Time of Max    Maximum
                          Volume   Pcnt   Pcnt   Pcnt      Volume   Pcnt     Occurrence    Outflow
  Storage Unit           1000 m³   Full   Loss   Loss     1000 m³   Full    days hr:min        LPS
  ------------------------------------------------------------------------------------------------
  CC-storage               5.088   79.4    0.0    0.0       6.410  100.0       0  02:43    1783.53
  JK-storage               0.239   81.9    0.0    0.0       0.291  100.0       0  01:49    2300.00
  XR-storage               0.030    2.1    0.0    0.0       0.600   41.7       0  00:00     380.00
  
  
  ***********************
  Outfall Loading Summary
  ***********************
  
  -----------------------------------------------------------
                         Flow       Avg       Max       Total
                         Freq      Flow      Flow      Volume
  Outfall Node           Pcnt       LPS       LPS    10^6 ltr
  -----------------------------------------------------------
  CC-1                   1.10    683.00    683.00       0.208
  CC-2                   1.10    683.00    683.00       0.208
  JK-1                   1.03    347.46   1000.00       0.079
  JK-2                   1.03    347.46   1000.00       0.079
  WSC                   99.94    546.07    818.15      14.912
  -----------------------------------------------------------
  System                20.84   2606.99   3366.35      15.487
  
  
  ********************
  Link Flow Summary
  ********************
  
  -----------------------------------------------------------------------------
                                 Maximum  Time of Max   Maximum    Max/    Max/
                                  |Flow|   Occurrence   |Veloc|    Full    Full
  Link                 Type          LPS  days hr:min     m/sec    Flow   Depth
  -----------------------------------------------------------------------------
  1                    CONDUIT    818.15     0  02:55      3.15    0.28    0.37
  WS02001211WS02001212 CONDUIT    390.85     0  03:36      0.78    0.30    0.64
  WS02001212WS02001213 CONDUIT    392.60     0  03:35      1.32    0.61    0.45
  WS02001213WS02003059 CONDUIT    395.65     0  03:35      0.85    0.65    0.75
  WS02003059WS02003060 CONDUIT    399.95     0  03:35      0.95    0.26    0.63
  WS02003060WS02003069 CONDUIT    816.05     0  02:59      1.80    0.32    0.42
  WS02003066WSF200     CONDUIT    411.88     0  02:59      2.69    0.07    0.19
  WS02003067WS02003066 CONDUIT    411.89     0  02:58      1.04    0.13    0.38
  WS02003069WS02003072 CONDUIT    816.35     0  03:00      1.55    0.39    0.47
  WS02003072WS02003073 CONDUIT    816.34     0  03:01      1.64    1.76    0.45
  WS02004138WS02004139 CONDUIT    395.20     0  00:00      3.65    0.08    0.43
  WS02004139WS02001211 CONDUIT    381.78     0  03:34      0.91    0.48    0.59
  WS02004401WS02004402 CONDUIT    412.00     0  02:21      0.99    0.49    0.77
  WS02004402WS02004403 CONDUIT    412.05     0  02:56      0.99    0.59    0.79
  WS02004403WS02004404 CONDUIT    412.01     0  02:56      0.93    0.30    0.84
  WS02004404WS02004405 CONDUIT    412.12     0  02:22      1.10    4.04    0.88
  WS02004405WS02004406 CONDUIT    412.22     0  02:22      1.03    0.81    0.88
  WS02004406WS02004407 CONDUIT    412.02     0  02:56      0.89    0.18    0.57
  WS02004407WS02004409 CONDUIT    411.98     0  02:04      1.42    0.15    0.42
  WS02004409WS02004410 CONDUIT    411.97     0  02:57      0.92    0.53    0.58
  WS02004410WS02004411 CONDUIT    411.93     0  02:57      0.85    0.56    0.60
  WS02004411WS02004412 CONDUIT    411.95     0  02:58      0.81    0.59    0.61
  WS02004412WS02004413 CONDUIT    411.96     0  02:58      0.70    0.28    0.70
  WS02004413WS02003067 CONDUIT    411.87     0  02:58      0.96    0.18    0.53
  WS02006109WS02006110 CONDUIT    411.87     0  01:53      0.84    0.79    0.94
  WS02006110WS02006113 CONDUIT    411.99     0  01:58      1.03    0.37    0.75
  WS02006111WS02006112 CONDUIT    413.27     0  03:21      1.83    0.20    0.65
  WS02006112WS02006115 CONDUIT    412.23     0  02:20      0.71    0.24    0.78
  WS02006113WS02006111 CONDUIT    423.29     0  02:27      2.25    0.51    0.40
  WS02006115WS02006116 CONDUIT    412.08     0  02:21      0.98    0.53    0.66
  WS02006116WS02004401 CONDUIT    412.08     0  02:55      1.00    0.57    0.74
  WS02006228WS02006109 CONDUIT    411.13     0  01:52      1.06    1.80    1.00
  WS02006229WS02006228 CONDUIT    412.45     0  01:54      1.13    1.37    1.00
  WS02006230WS02006229 CONDUIT    410.87     0  01:53      1.22    9.14    1.00
  WS02006231WS02006230 CONDUIT    400.45     0  02:00      1.37    6.07    0.77
  WS02006232WS02006231 CONDUIT    400.56     0  02:00      1.08    0.84    0.92
  WS02006234WS02006232 CONDUIT    400.57     0  02:00      1.40    0.81    1.00
  WS02006235WS02006234 CONDUIT    401.80     0  02:00      1.30    4.24    0.99
  WS02006238WS02006235 CONDUIT    402.38     0  02:00      1.48    0.90    1.00
  WS02006239WS02006238 CONDUIT    401.77     0  02:00      1.21    1.29    1.00
  WS02006240WS02006239 CONDUIT    401.44     0  01:52      1.32    1.26    1.00
  WS02006242WS02006240 CONDUIT    401.43     0  02:00      1.18    1.59    1.00
  WS02006243WS02006242 CONDUIT    401.54     0  02:04      1.42    0.86    1.00
  WS02006245WS02006243 CONDUIT    402.20     0  02:05      1.45    1.19    1.00
  WS02006247WS02006245 CONDUIT    403.79     0  02:05      1.43    3.20    1.00
  WS02006248WS02006247 CONDUIT    401.23     0  02:00      1.47    0.87    1.00
  WS02006249WS02006248 CONDUIT    404.83     0  02:05      1.39    2.22    1.00
  WS02006251WS02006249 CONDUIT    473.22     0  04:37      1.99    1.36    1.00
  WS02006252WS02006251 CONDUIT    404.57     0  04:26     24.55    1.48    1.00
  WS02006256WS02006235 CONDUIT    288.91     0  00:00      4.23    3.06    1.00
  WSF200WS02003060     CONDUIT    411.90     0  02:59      1.43    0.09    0.30
  YS02001580YS02001583 CONDUIT    142.89     0  01:46      0.83    0.55    1.00
  YS02001583YS02001586 CONDUIT    193.22     0  01:47      0.82    0.29    1.00
  YS02001586YS02001590 CONDUIT    321.27     0  02:05      1.28    0.56    1.00
  YS02001590YS02001593 CONDUIT    318.88     0  01:51      1.13    2.00    1.00
  YS02001593YS02001596 CONDUIT    318.59     0  01:51      1.62    0.50    1.00
  YS02001596YS02001600 CONDUIT    318.36     0  01:51      1.13    0.62    1.00
  YS02001600YS02001601 CONDUIT    318.44     0  01:51      1.13    0.55    1.00
  YS02001601YS02001602 CONDUIT    557.71     0  01:46      1.97    2.01    1.00
  YS02001602YS02001605 CONDUIT    557.82     0  01:46      1.97   11.80    1.00
  YS02001605YS02001607 CONDUIT    557.25     0  01:46      1.97    3.06    1.00
  YS02001607YS02001610 CONDUIT    542.42     0  01:46      0.69    0.52    1.00
  YS02001610YS02001613 CONDUIT    549.34     0  01:46      0.70    0.63    1.00
  YS02001613YS02001616 CONDUIT    555.28     0  01:46      0.71    0.48    1.00
  YS02001616YS02001619 CONDUIT    530.63     0  01:46      0.68    0.92    1.00
  YS02001619YS02001622 CONDUIT    943.16     0  01:46      1.24    1.39    1.00
  YS02001622YS02001625 CONDUIT    939.94     0  01:47      1.20    0.50    1.00
  YS02001625YS02001629 CONDUIT    941.40     0  01:47      1.20    0.45    1.00
  YS02001629YS02163301 CONDUIT    927.22     0  01:48      1.18    1.14    1.00
  YS02001633YS02163601 CONDUIT   1448.81     0  01:48      1.84    1.52    1.00
  YS02001641YS02001644 CONDUIT   1448.18     0  01:48      1.84    4.68    1.00
  YS02001644YS02001647 CONDUIT   1908.59     0  01:48      2.45    1.12    1.00
  YS02001647YS02001649 CONDUIT   1890.42     0  01:48      2.43    1.00    1.00
  YS02001649YS02001757 CONDUIT   2196.83     0  01:48      2.80    1.33    1.00
  YS02001652YS02001649 CONDUIT    594.25     0  01:52      0.84    0.29    1.00
  YS02001655YS02001652 CONDUIT    594.79     0  01:52      1.41    0.29    1.00
  YS02001658YS02001655 CONDUIT    592.75     0  01:52      2.00    0.25    1.00
  YS02001661YS02001658 CONDUIT    692.89     0  01:51      2.41    0.27    0.88
  YS02001664YS02001661 CONDUIT    536.27     0  01:50      2.34    0.17    0.55
  YS02001745YS02001748 CONDUIT    487.81     0  01:52      2.26    0.19    0.65
  YS02001748YS02001751 CONDUIT    425.94     0  01:54      1.81    0.22    0.99
  YS02001751YS02001754 CONDUIT    373.24     0  01:52      1.51    0.18    1.00
  YS02001754YS02001757 CONDUIT    375.00     0  01:52      0.53    0.15    1.00
  YS02001757CaochengTiaoxuchi CONDUIT   3293.00     0  01:52      4.21    1.43    1.00
  YS02001759YS02001757 CONDUIT   1197.56     0  01:49      1.52    0.85    1.00
  YS02001762YS02001759 CONDUIT    716.81     0  01:49      0.91    0.83    1.00
  YS02001765YS02001762 CONDUIT    710.15     0  01:49      0.90    0.67    1.00
  YS02001767YS02001765 CONDUIT    702.46     0  01:49      0.89    0.88    1.00
  YS02001770YS02001767 CONDUIT    695.19     0  01:49      0.89    2.75    1.00
  YS02001774YS02001770 CONDUIT    396.09     0  01:49      0.50    0.25    1.00
  YS02001779YS02001774 CONDUIT    396.29     0  01:49      0.52    0.20    1.00
  YS02001783YS02001784 CONDUIT   1103.39     0  01:48      2.20    1.52    1.00
  YS02001784YS02001785 CONDUIT   1103.48     0  01:48      2.20    2.57    1.00
  YS02001786YS02001788 CONDUIT   1092.45     0  01:49      2.36    2.10    1.00
  YS02001788YS02001790 CONDUIT    998.95     0  01:48      2.45    0.74    1.00
  YS02001790YS02001791 CONDUIT    994.70     0  01:49      2.93    1.08    1.00
  YS02001791YS02001793 CONDUIT    997.77     0  01:49      5.70    0.43    1.00
  YS02001793JiankangQianchi CONDUIT   1000.93     0  01:49      1.58    0.08    1.00
  YS02001882YS02001884 CONDUIT     63.70     0  01:48      0.13    0.07    1.00
  YS02001884YS02001887 CONDUIT    126.96     0  01:47      0.16    0.17    1.00
  YS02001887YS02001890 CONDUIT    521.82     0  01:50      0.66    0.89    1.00
  YS02001890YS02001895 CONDUIT    522.77     0  01:48      0.67    0.24    1.00
  YS02001895YS02001898 CONDUIT    530.46     0  01:48      0.68    0.92    1.00
  YS02001898YS02001901 CONDUIT    542.64     0  01:48      0.69    0.35    1.00
  YS02001901YS02001904 CONDUIT    548.63     0  01:48      0.70    0.85    1.00
  YS02001904YS02001907 CONDUIT    557.85     0  01:48      0.71    0.20    1.00
  YS02001907YS02006553 CONDUIT    699.80     0  02:05      0.78    0.82    1.00
  YS02001910YS02001907 CONDUIT   1001.82     0  01:50      1.28    0.56    1.00
  YS02001915YS02001910 CONDUIT   1001.26     0  01:50      1.27    0.50    1.00
  YS02001918YS02001915 CONDUIT    533.40     0  01:48      0.72    0.29    1.00
  YS02001920YS02001918 CONDUIT    474.65     0  01:49      0.65    0.46    1.00
  YS02001923YS02001920 CONDUIT    458.80     0  01:49      0.75    0.21    1.00
  YS02001926YS02001923 CONDUIT    607.52     0  01:49      1.02    0.87    1.00
  YS02001929YS02001926 CONDUIT    448.36     0  01:49      1.20    0.21    1.00
  YS02006553YS02006556 CONDUIT    680.31     0  02:05      0.87    0.58    1.00
  YS02006556YS02006558 CONDUIT    677.67     0  02:05      0.86    0.54    1.00
  YS02006558YS02006561 CONDUIT   1148.35     0  01:48      4.06    2.54    1.00
  YS02006561YS02001783 CONDUIT   1103.51     0  01:48      2.28    0.57    1.00
  YS02163301YS02001633 CONDUIT    925.56     0  01:48      1.18    0.87    1.00
  YS02163601YS02164001 CONDUIT   1448.33     0  01:48      1.84    1.28    1.00
  YS02164001YS02001641 CONDUIT   1448.63     0  01:48      1.84    1.98    1.00
  CC-R1                PUMP       683.00     0  00:00              1.00
  CC-R2                PUMP       683.00     0  00:00              1.00
  CC-S1                PUMP       200.00     0  00:00              1.00
  CC-S2                PUMP       200.00     0  00:00              1.00
  JK-R1                PUMP      1000.00     0  00:00              1.00
  JK-R2                PUMP      1000.00     0  00:00              1.00
  JK-S                 PUMP       300.00     0  00:00              1.00
  XR-1                 PUMP        95.00     0  00:00              1.00
  XR-2                 PUMP        95.00     0  00:00              1.00
  XR-3                 PUMP        95.00     0  00:00              1.00
  XR-4                 PUMP        95.00     0  00:00              1.00
  
  
  ***************************
  Flow Classification Summary
  ***************************
  
  -------------------------------------------------------------------------------------
                      Adjusted    ---------- Fraction of Time in Flow Class ---------- 
                       /Actual         Up    Down  Sub   Sup   Up    Down  Norm  Inlet 
  Conduit               Length    Dry  Dry   Dry   Crit  Crit  Crit  Crit  Ltd   Ctrl  
  -------------------------------------------------------------------------------------
  1                       1.00   0.00  0.00  0.00  0.00  1.00  0.00  0.00  0.28  0.00
  WS02001211WS02001212    1.00   0.00  0.00  0.00  1.00  0.00  0.00  0.00  0.00  0.00
  WS02001212WS02001213    1.00   0.00  0.00  0.00  0.59  0.00  0.41  0.00  0.00  0.00
  WS02001213WS02003059    1.00   0.00  0.00  0.00  0.99  0.00  0.00  0.00  0.00  0.00
  WS02003059WS02003060    1.00   0.00  0.00  0.00  1.00  0.00  0.00  0.00  0.00  0.00
  WS02003060WS02003069    1.00   0.00  0.00  0.00  0.99  0.01  0.00  0.00  0.00  0.00
  WS02003066WSF200        1.00   0.02  0.10  0.00  0.00  0.88  0.00  0.00  0.86  0.00
  WS02003067WS02003066    1.00   0.10  0.02  0.00  0.89  0.00  0.00  0.00  0.00  0.00
  WS02003069WS02003072    1.00   0.00  0.00  0.00  0.99  0.01  0.00  0.00  0.00  0.00
  WS02003072WS02003073    1.00   0.00  0.00  0.00  0.00  0.00  0.00  1.00  0.00  0.00
  WS02004138WS02004139    1.00   0.00  0.00  0.00  0.99  0.01  0.00  0.00  1.00  0.00
  WS02004139WS02001211    1.00   0.00  0.00  0.00  1.00  0.00  0.00  0.00  0.00  0.00
  WS02004401WS02004402    1.00   0.02  0.00  0.00  0.98  0.00  0.00  0.00  0.00  0.00
  WS02004402WS02004403    1.00   0.02  0.00  0.00  0.98  0.00  0.00  0.00  0.00  0.00
  WS02004403WS02004404    1.00   0.00  0.03  0.00  0.97  0.00  0.00  0.00  0.00  0.00
  WS02004404WS02004405    1.00   0.00  0.00  0.00  1.00  0.00  0.00  0.00  0.01  0.00
  WS02004405WS02004406    1.00   0.00  0.00  0.00  1.00  0.00  0.00  0.00  0.00  0.00
  WS02004406WS02004407    1.00   0.00  0.05  0.00  0.95  0.00  0.00  0.00  0.00  0.00
  WS02004407WS02004409    1.00   0.05  0.00  0.00  0.94  0.01  0.00  0.00  0.94  0.00
  WS02004409WS02004410    1.00   0.05  0.00  0.00  0.95  0.00  0.00  0.00  0.02  0.00
  WS02004410WS02004411    1.00   0.05  0.00  0.00  0.95  0.00  0.00  0.00  0.00  0.00
  WS02004411WS02004412    1.00   0.05  0.00  0.00  0.95  0.00  0.00  0.00  0.00  0.00
  WS02004412WS02004413    1.00   0.05  0.00  0.00  0.94  0.00  0.00  0.00  0.01  0.00
  WS02004413WS02003067    1.00   0.06  0.04  0.00  0.00  0.00  0.90  0.00  0.00  0.00
  WS02006109WS02006110    1.00   0.00  0.01  0.00  0.98  0.00  0.01  0.00  0.00  0.00
  WS02006110WS02006113    1.00   0.01  0.01  0.00  0.98  0.00  0.00  0.00  0.00  0.00
  WS02006111WS02006112    1.00   0.02  0.00  0.00  0.98  0.00  0.00  0.00  0.98  0.00
  WS02006112WS02006115    1.00   0.02  0.00  0.00  0.97  0.00  0.00  0.00  0.00  0.00
  WS02006113WS02006111    1.00   0.02  0.00  0.00  0.00  0.98  0.00  0.00  0.14  0.00
  WS02006115WS02006116    1.00   0.02  0.00  0.00  0.97  0.00  0.00  0.01  0.00  0.00
  WS02006116WS02004401    1.00   0.02  0.00  0.00  0.98  0.00  0.00  0.00  0.00  0.00
  WS02006228WS02006109    1.00   0.00  0.00  0.00  1.00  0.00  0.00  0.00  0.00  0.00
  WS02006229WS02006228    1.00   0.00  0.00  0.00  0.99  0.00  0.00  0.01  0.00  0.00
  WS02006230WS02006229    1.00   0.00  0.00  0.00  0.99  0.00  0.00  0.01  0.00  0.00
  WS02006231WS02006230    1.00   0.00  0.00  0.00  0.23  0.00  0.77  0.00  0.00  0.00
  WS02006232WS02006231    1.00   0.00  0.00  0.00  0.98  0.00  0.02  0.00  0.00  0.00
  WS02006234WS02006232    1.00   0.00  0.00  0.00  1.00  0.00  0.00  0.00  0.28  0.00
  WS02006235WS02006234    1.00   0.00  0.00  0.00  0.65  0.00  0.35  0.00  0.00  0.00
  WS02006238WS02006235    1.00   0.00  0.00  0.00  1.00  0.00  0.00  0.00  0.00  0.00
  WS02006239WS02006238    1.00   0.00  0.00  0.00  1.00  0.00  0.00  0.00  0.45  0.00
  WS02006240WS02006239    1.00   0.00  0.00  0.00  0.47  0.00  0.00  0.52  0.03  0.00
  WS02006242WS02006240    1.00   0.00  0.00  0.00  0.98  0.00  0.02  0.00  0.00  0.00
  WS02006243WS02006242    1.00   0.00  0.00  0.00  0.98  0.00  0.00  0.02  0.62  0.00
  WS02006245WS02006243    1.00   0.00  0.00  0.00  0.59  0.00  0.00  0.41  0.00  0.00
  WS02006247WS02006245    1.00   0.00  0.00  0.00  0.98  0.00  0.00  0.02  0.00  0.00
  WS02006248WS02006247    1.00   0.00  0.00  0.00  0.98  0.00  0.00  0.01  0.26  0.00
  WS02006249WS02006248    1.00   0.00  0.00  0.00  0.38  0.00  0.62  0.00  0.00  0.00
  WS02006251WS02006249    1.00   0.00  0.00  0.00  0.99  0.01  0.00  0.00  0.63  0.00
  WS02006252WS02006251    1.00   0.00  0.58  0.00  0.00  0.00  0.41  0.00  0.11  0.00
  WS02006256WS02006235    1.00   0.00  0.00  0.00  1.00  0.00  0.00  0.00  0.00  0.00
  WSF200WS02003060        1.00   0.00  0.02  0.00  0.98  0.00  0.00  0.00  0.67  0.00
  YS02001580YS02001583    1.00   0.22  0.60  0.00  0.18  0.00  0.00  0.00  0.69  0.00
  YS02001583YS02001586    1.00   0.49  0.27  0.00  0.23  0.00  0.00  0.00  0.69  0.00
  YS02001586YS02001590    1.00   0.13  0.00  0.00  0.38  0.04  0.00  0.46  0.31  0.00
  YS02001590YS02001593    1.00   0.13  0.01  0.00  0.13  0.00  0.73  0.00  0.00  0.00
  YS02001593YS02001596    1.00   0.13  0.00  0.00  0.79  0.00  0.00  0.08  0.65  0.00
  YS02001596YS02001600    1.00   0.14  0.00  0.00  0.81  0.00  0.00  0.05  0.01  0.00
  YS02001600YS02001601    1.00   0.13  0.01  0.00  0.86  0.00  0.00  0.00  0.04  0.00
  YS02001601YS02001602    1.00   0.13  0.01  0.00  0.86  0.00  0.00  0.00  0.00  0.00
  YS02001602YS02001605    1.00   0.14  0.00  0.00  0.86  0.00  0.00  0.00  0.00  0.00
  YS02001605YS02001607    1.00   0.14  0.00  0.00  0.86  0.00  0.00  0.00  0.00  0.00
  YS02001607YS02001610    1.00   0.13  0.01  0.00  0.86  0.00  0.00  0.00  0.01  0.00
  YS02001610YS02001613    1.00   0.13  0.00  0.00  0.87  0.00  0.00  0.00  0.00  0.00
  YS02001613YS02001616    1.00   0.13  0.00  0.00  0.87  0.00  0.00  0.00  0.00  0.00
  YS02001616YS02001619    1.00   0.13  0.00  0.00  0.87  0.00  0.00  0.00  0.00  0.00
  YS02001619YS02001622    1.00   0.13  0.00  0.00  0.87  0.00  0.00  0.00  0.00  0.00
  YS02001622YS02001625    1.00   0.13  0.00  0.00  0.87  0.00  0.00  0.00  0.04  0.00
  YS02001625YS02001629    1.00   0.13  0.05  0.00  0.79  0.00  0.03  0.00  0.00  0.00
  YS02001629YS02163301    1.00   0.15  0.01  0.00  0.84  0.00  0.00  0.00  0.00  0.00
  YS02001633YS02163601    1.00   0.00  0.01  0.00  0.99  0.00  0.00  0.00  0.15  0.00
  YS02001641YS02001644    1.00   0.00  0.01  0.00  0.99  0.00  0.00  0.00  0.00  0.00
  YS02001644YS02001647    1.00   0.00  0.17  0.00  0.83  0.00  0.00  0.00  0.00  0.00
  YS02001647YS02001649    1.00   0.00  0.17  0.00  0.83  0.00  0.00  0.00  0.01  0.00
  YS02001649YS02001757    1.00   0.00  0.00  0.00  0.98  0.01  0.00  0.00  0.18  0.00
  YS02001652YS02001649    1.00   0.00  0.00  0.00  0.97  0.03  0.00  0.00  0.16  0.00
  YS02001655YS02001652    1.00   0.00  0.00  0.00  0.79  0.00  0.00  0.21  0.00  0.00
  YS02001658YS02001655    1.00   0.00  0.14  0.00  0.78  0.08  0.00  0.00  0.01  0.00
  YS02001661YS02001658    1.00   0.14  0.00  0.00  0.77  0.09  0.00  0.00  0.00  0.00
  YS02001664YS02001661    1.00   0.13  0.00  0.00  0.83  0.04  0.00  0.00  0.86  0.00
  YS02001745YS02001748    1.00   0.00  0.00  0.00  0.77  0.00  0.00  0.23  0.01  0.00
  YS02001748YS02001751    1.00   0.00  0.00  0.00  0.91  0.09  0.00  0.00  0.13  0.00
  YS02001751YS02001754    1.00   0.00  0.00  0.00  0.78  0.00  0.00  0.22  0.00  0.00
  YS02001754YS02001757    1.00   0.00  0.00  0.00  1.00  0.00  0.00  0.00  0.21  0.00
  YS02001757CaochengTiaoxuchi    1.00   0.00  0.00  0.00  0.98  0.02  0.00  0.00  0.20  0.00
  YS02001759YS02001757    1.00   0.00  0.00  0.00  1.00  0.00  0.00  0.00  0.06  0.00
  YS02001762YS02001759    1.00   0.00  0.00  0.00  1.00  0.00  0.00  0.00  0.04  0.00
  YS02001765YS02001762    1.00   0.00  0.00  0.00  1.00  0.00  0.00  0.00  0.15  0.00
  YS02001767YS02001765    1.00   0.00  0.00  0.00  1.00  0.00  0.00  0.00  0.00  0.00
  YS02001770YS02001767    1.00   0.00  0.00  0.00  1.00  0.00  0.00  0.00  0.00  0.00
  YS02001774YS02001770    1.00   0.00  0.13  0.00  0.87  0.00  0.00  0.00  0.03  0.00
  YS02001779YS02001774    1.00   0.00  0.00  0.00  1.00  0.00  0.00  0.00  0.18  0.00
  YS02001783YS02001784    1.00   0.00  0.18  0.00  0.82  0.00  0.00  0.00  0.00  0.00
  YS02001784YS02001785    1.00   0.00  0.00  0.00  1.00  0.00  0.00  0.00  0.17  0.00
  YS02001786YS02001788    1.00   0.00  0.00  0.00  0.96  0.04  0.00  0.00  0.00  0.00
  YS02001788YS02001790    1.00   0.00  0.00  0.00  0.96  0.04  0.00  0.00  0.19  0.00
  YS02001790YS02001791    1.00   0.00  0.00  0.00  0.79  0.21  0.00  0.00  0.02  0.00
  YS02001791YS02001793    1.00   0.00  0.00  0.00  0.78  0.22  0.00  0.00  0.00  0.00
  YS02001793JiankangQianchi    1.00   0.00  0.00  0.00  0.93  0.06  0.00  0.00  0.20  0.00
  YS02001882YS02001884    1.00   0.15  0.01  0.00  0.84  0.00  0.00  0.00  0.00  0.00
  YS02001884YS02001887    1.00   0.06  0.05  0.00  0.89  0.00  0.00  0.00  0.00  0.00
  YS02001887YS02001890    1.00   0.00  0.00  0.00  0.97  0.00  0.03  0.00  0.00  0.00
  YS02001890YS02001895    1.00   0.00  0.16  0.00  0.83  0.00  0.00  0.00  0.00  0.00
  YS02001895YS02001898    1.00   0.17  0.00  0.00  0.82  0.00  0.02  0.00  0.00  0.00
  YS02001898YS02001901    1.00   0.17  0.00  0.00  0.83  0.00  0.00  0.00  0.01  0.00
  YS02001901YS02001904    1.00   0.17  0.00  0.00  0.83  0.00  0.00  0.00  0.00  0.00
  YS02001904YS02001907    1.00   0.00  0.16  0.00  0.83  0.00  0.00  0.00  0.00  0.00
  YS02001907YS02006553    1.00   0.00  0.02  0.00  0.98  0.00  0.00  0.00  0.00  0.00
  YS02001910YS02001907    1.00   0.00  0.00  0.00  0.97  0.00  0.00  0.03  0.12  0.00
  YS02001915YS02001910    1.00   0.00  0.00  0.00  0.97  0.03  0.00  0.00  0.16  0.00
  YS02001918YS02001915    1.00   0.00  0.01  0.00  0.98  0.02  0.00  0.00  0.78  0.00
  YS02001920YS02001918    1.00   0.00  0.01  0.00  0.99  0.00  0.00  0.00  0.00  0.00
  YS02001923YS02001920    1.00   0.00  0.00  0.00  1.00  0.00  0.00  0.00  0.94  0.00
  YS02001926YS02001923    1.00   0.00  0.07  0.00  0.05  0.00  0.88  0.00  0.00  0.00
  YS02001929YS02001926    1.00   0.00  0.13  0.00  0.87  0.00  0.00  0.00  0.83  0.00
  YS02006553YS02006556    1.00   0.01  0.00  0.00  0.99  0.00  0.00  0.00  0.03  0.00
  YS02006556YS02006558    1.00   0.00  0.00  0.00  1.00  0.00  0.00  0.00  0.00  0.00
  YS02006558YS02006561    1.00   0.18  0.00  0.00  0.06  0.76  0.00  0.00  0.18  0.00
  YS02006561YS02001783    1.00   0.18  0.00  0.00  0.78  0.04  0.00  0.00  0.73  0.00
  YS02163301YS02001633    1.00   0.00  0.15  0.00  0.85  0.00  0.00  0.00  0.00  0.00
  YS02163601YS02164001    1.00   0.00  0.08  0.00  0.92  0.00  0.00  0.00  0.00  0.00
  YS02164001YS02001641    1.00   0.01  0.07  0.00  0.92  0.00  0.00  0.00  0.06  0.00
  
  
  *************************
  Conduit Surcharge Summary
  *************************
  
  ----------------------------------------------------------------------------
                                                           Hours        Hours 
                         --------- Hours Full --------   Above Full   Capacity
  Conduit                Both Ends  Upstream  Dnstream   Normal Flow   Limited
  ----------------------------------------------------------------------------
  WS02003072WS02003073        0.01      0.01      0.01      2.90         0.01
  WS02004404WS02004405        0.01      0.01      0.01      2.55         0.01
  WS02006109WS02006110        0.01      0.01      1.74      0.01         0.01
  WS02006110WS02006113        0.01      0.01      1.72      0.01         0.01
  WS02006111WS02006112        0.01      0.01      1.79      0.01         0.01
  WS02006228WS02006109        1.69      1.74      1.69      2.04         1.69
  WS02006229WS02006228        1.68      1.70      1.68      1.89         1.67
  WS02006230WS02006229        1.79      1.82      1.79      3.15         1.79
  WS02006231WS02006230        0.01      0.01      0.01      2.83         0.01
  WS02006232WS02006231        0.01      0.01      1.75      0.01         0.01
  WS02006234WS02006232        1.65      1.65      1.75      0.01         0.01
  WS02006235WS02006234        0.01      0.01      1.69      2.62         0.01
  WS02006238WS02006235        1.70      1.70      1.76      0.01         0.01
  WS02006239WS02006238        1.72      1.75      1.72      1.96         1.72
  WS02006240WS02006239        1.70      1.71      1.70      2.00         1.70
  WS02006242WS02006240        1.70      1.70      1.80      2.12         0.01
  WS02006243WS02006242        1.73      1.73      1.78      0.01         0.01
  WS02006245WS02006243        1.72      1.73      1.72      2.10         1.71
  WS02006247WS02006245        1.72      1.74      1.72      2.40         1.72
  WS02006248WS02006247        1.72      1.72      1.73      0.01         0.01
  WS02006249WS02006248        1.71      1.71      1.73      2.36         0.01
  WS02006251WS02006249        1.73      1.74      1.73      2.21         1.73
  WS02006252WS02006251        2.26      2.26      2.26      2.26         0.01
  WS02006256WS02006235        2.71      2.71      4.33      0.02         0.01
  YS02001580YS02001583        0.41      0.42      0.47      0.01         0.01
  YS02001583YS02001586        0.42      0.42      0.62      0.01         0.01
  YS02001586YS02001590        0.63      0.63      0.72      0.01         0.01
  YS02001590YS02001593        0.72      0.72      0.75      0.71         0.01
  YS02001593YS02001596        0.73      0.73      0.95      0.01         0.01
  YS02001596YS02001600        1.13      1.13      1.50      0.01         0.01
  YS02001600YS02001601        2.89      2.89      6.39      0.01         0.01
  YS02001601YS02001602        6.36      6.36      6.40      0.87         0.01
  YS02001602YS02001605        6.34      6.34      6.36      2.01         0.37
  YS02001605YS02001607        6.32      6.34      6.32      1.17         1.09
  YS02001607YS02001610        1.27      1.27      1.42      0.01         0.01
  YS02001610YS02001613        1.27      1.27      1.42      0.01         0.01
  YS02001613YS02001616        1.07      1.07      1.27      0.01         0.01
  YS02001616YS02001619        1.02      1.02      1.07      0.01         0.01
  YS02001619YS02001622        1.02      1.02      1.08      0.58         0.49
  YS02001622YS02001625        1.09      1.09      6.24      0.01         0.01
  YS02001625YS02001629        0.98      0.98      6.24      0.01         0.01
  YS02001629YS02163301        6.24      6.24      6.24      0.03         0.09
  YS02001633YS02163601        6.25      6.25      6.25      0.31         0.29
  YS02001641YS02001644        6.23      6.23      6.23      1.28         1.22
  YS02001644YS02001647        6.19      6.19      6.23      0.04         0.01
  YS02001647YS02001649        6.19      6.19      6.19      0.01         0.01
  YS02001649YS02001757        6.19      6.19      6.19      0.22         0.19
  YS02001652YS02001649        6.18      6.18      6.19      0.01         0.01
  YS02001655YS02001652        0.50      0.50      6.17      0.01         0.01
  YS02001658YS02001655        0.02      0.02      0.51      0.01         0.01
  YS02001661YS02001658        0.01      0.01      0.02      0.01         0.01
  YS02001748YS02001751        0.01      0.01      0.06      0.01         0.01
  YS02001751YS02001754        0.06      0.06      6.15      0.01         0.01
  YS02001754YS02001757        6.17      6.17      6.19      0.01         0.01
  YS02001757CaochengTiaoxuchi        6.13      6.19      6.13      0.24         0.16
  YS02001759YS02001757        6.18      6.18      6.19      0.01         0.01
  YS02001762YS02001759        6.18      6.18      6.18      0.01         0.02
  YS02001765YS02001762        6.18      6.18      6.18      0.01         0.01
  YS02001767YS02001765        6.18      6.18      6.18      0.01         0.02
  YS02001770YS02001767        6.18      6.18      6.18      0.37         0.50
  YS02001774YS02001770        6.18      6.18      6.18      0.01         0.01
  YS02001779YS02001774        3.17      3.17      6.18      0.01         0.01
  YS02001783YS02001784        0.53      0.54      0.54      0.50         0.46
  YS02001784YS02001785        0.52      0.54      0.52      0.71         0.52
  YS02001786YS02001788        0.51      0.52      0.51      0.62         0.51
  YS02001788YS02001790        0.51      0.51      6.18      0.01         0.01
  YS02001790YS02001791        6.18      6.18      6.19      0.27         0.27
  YS02001791YS02001793        6.19      6.19      6.20      0.01         0.01
  YS02001793JiankangQianchi        6.20      6.20      6.35      0.01         0.01
  YS02001882YS02001884        0.38      0.38      0.40      0.01         0.01
  YS02001884YS02001887        0.42      0.42      0.43      0.01         0.01
  YS02001887YS02001890        0.44      0.44      0.45      0.01         0.01
  YS02001890YS02001895        0.37      0.37      0.46      0.01         0.01
  YS02001895YS02001898        0.36      0.36      0.37      0.01         0.01
  YS02001898YS02001901        0.38      0.38      0.41      0.01         0.01
  YS02001901YS02001904        0.40      0.40      0.41      0.01         0.01
  YS02001904YS02001907        0.40      0.40      0.61      0.01         0.01
  YS02001907YS02006553        0.71      0.71      0.78      0.01         0.01
  YS02001910YS02001907        0.46      0.46      0.59      0.01         0.01
  YS02001915YS02001910        0.38      0.38      0.46      0.01         0.01
  YS02001918YS02001915        0.28      0.28      0.38      0.01         0.01
  YS02001920YS02001918        0.28      0.28      0.31      0.01         0.01
  YS02001923YS02001920        0.24      0.24      0.31      0.01         0.01
  YS02001926YS02001923        0.01      0.01      0.01      0.01         0.01
  YS02001929YS02001926        0.01      0.01      0.01      0.01         0.01
  YS02006553YS02006556        0.53      0.53      0.61      0.01         0.01
  YS02006556YS02006558        0.57      0.57      0.62      0.01         0.01
  YS02006558YS02006561        0.40      0.53      0.40      0.67         0.40
  YS02006561YS02001783        0.31      0.31      0.54      0.01         0.01
  YS02163301YS02001633        6.24      6.24      6.25      0.01         0.01
  YS02163601YS02164001        6.23      6.23      6.25      0.05         0.01
  YS02164001YS02001641        6.23      6.23      6.23      0.64         0.61
  
  
  ***************
  Pumping Summary
  ***************
  
  ---------------------------------------------------------------------------------------------------------
                                                  Min       Avg       Max     Total     Power    % Time Off
                        Percent   Number of      Flow      Flow      Flow    Volume     Usage    Pump Curve
  Pump                 Utilized   Start-Ups       LPS       LPS       LPS  10^6 ltr     Kw-hr    Low   High
  ---------------------------------------------------------------------------------------------------------
  CC-R1                    1.06           1      0.00    683.00    683.00     0.208      3.51    0.0  100.0
  CC-R2                    1.06           1      0.00    683.00    683.00     0.208      3.51    0.0  100.0
  CC-S1                   30.99           8      0.00    200.00    200.00     1.785      7.42    0.0   60.6
  CC-S2                   28.25           5      0.00    200.00    200.00     1.627      7.02    0.0   56.7
  JK-R1                    0.97           2      0.00    347.46   1000.00     0.078      0.47    0.0    0.0
  JK-R2                    0.97           2      0.00    347.46   1000.00     0.078      0.47    0.0    0.0
  JK-S                     0.97           2      0.00    104.30    300.00     0.023      0.44    0.0    0.0
  XR-1                   100.00           1      0.00     95.00     95.00     2.736     68.18    0.0    0.0
  XR-2                   100.00           1      0.00     95.00     95.00     2.736     68.18    0.0    0.0
  XR-3                   100.00           1      0.00     95.00     95.00     2.736     68.18    0.0    0.0
  XR-4                   100.00           1      0.00     95.00     95.00     2.736     68.18    0.0    0.0
  

  Analysis begun on:  Wed Nov  5 16:29:51 2025
  Analysis ended on:  Wed Nov  5 16:29:54 2025
  Total elapsed time: 00:00:03