
  EPA STORM WATER MANAGEMENT MODEL - VERSION 5.2 (Build 5.2.4)
  PYSWMM TOOLKIT API - VERSION v1.0 (2023-11-27)
  ------------------------------------------------------------

  WARNING 04: minimum elevation drop used for Conduit WS02004404WS02004405
  WARNING 03: negative offset ignored for Link YS02001904YS02001907
  
  ****************
  Analysis Options
  ****************
  Flow Units ............... LPS
  Process Models:
    Rainfall/Runoff ........ YES
    RDII ................... NO
    Snowmelt ............... NO
    Groundwater ............ NO
    Flow Routing ........... YES
    Ponding Allowed ........ NO
    Water Quality .......... NO
  Infiltration Method ...... HORTON
  Flow Routing Method ...... DYNWAVE
  Surcharge Method ......... EXTRAN
  Starting Date ............ 08/28/2015 08:00:00
  Ending Date .............. 08/28/2015 16:00:00
  Antecedent Dry Days ...... 8.0
  Report Time Step ......... 00:01:00
  Wet Time Step ............ 00:01:00
  Dry Time Step ............ 00:01:00
  Routing Time Step ........ 30.00 sec
  Variable Time Step ....... YES
  Maximum Trials ........... 8
  Number of Threads ........ 4
  Head Tolerance ........... 0.001500 m
  
  
  **************************        Volume         Depth
  Runoff Quantity Continuity     hectare-m            mm
  **************************     ---------       -------
  Initial LID Storage ......         0.049         1.488
  Total Precipitation ......         2.612        78.741
  Evaporation Loss .........         0.000         0.000
  Infiltration Loss ........         0.078         2.357
  Surface Runoff ...........         1.958        59.019
  Final Storage ............         0.626        18.876
  Continuity Error (%) .....        -0.030
  
  
  **************************        Volume        Volume
  Flow Routing Continuity        hectare-m      10^6 ltr
  **************************     ---------     ---------
  Dry Weather Inflow .......         0.602         6.020
  Wet Weather Inflow .......         1.958        19.576
  Groundwater Inflow .......         0.000         0.000
  RDII Inflow ..............         0.000         0.000
  External Inflow ..........         0.105         1.045
  External Outflow .........         1.624        16.244
  Flooding Loss ............         1.070        10.703
  Evaporation Loss .........         0.000         0.000
  Exfiltration Loss ........         0.000         0.000
  Initial Stored Volume ....         0.303         3.031
  Final Stored Volume ......         0.737         7.373
  Continuity Error (%) .....       -15.667
  
  
  *************************
  Highest Continuity Errors
  *************************
  Node YS02001774 (10.76%)
  Node YS02001583 (-7.53%)
  Node WS02006256 (-6.95%)
  Node YS02001884 (4.63%)
  Node YS02001754 (2.17%)
  
  
  ***************************
  Time-Step Critical Elements
  ***************************
  Link WS02006238WS02006235 (35.28%)
  Link WS02006252WS02006251 (19.48%)
  Link WS02003066WSF200 (12.89%)
  Link WS02006235WS02006234 (12.61%)
  Link WS02001212WS02001213 (4.27%)
  
  
  ********************************
  Highest Flow Instability Indexes
  ********************************
  Link WS02006113WS02006111 (42)
  Link WS02006256WS02006235 (26)
  Link WS02006111WS02006112 (20)
  Link YS02001779YS02001774 (18)
  Link YS02001774YS02001770 (17)
  
  
  *********************************
  Most Frequent Nonconverging Nodes
  *********************************
  Node CC-1 (8.08%)
  Node CC-2 (8.08%)
  Node JK-1 (8.08%)
  Node JK-2 (8.08%)
  Node WSC (8.08%)
  
  
  *************************
  Routing Time Step Summary
  *************************
  Minimum Time Step           :     0.00 sec
  Average Time Step           :     2.52 sec
  Maximum Time Step           :     6.46 sec
  % of Time in Steady State   :     0.00
  Average Iterations per Step :     3.08
  % of Steps Not Converging   :     8.08
  Time Step Frequencies       :
     30.000 - 13.228 sec      :     0.00 %
     13.228 -  5.833 sec      :     6.91 %
      5.833 -  2.572 sec      :    41.00 %
      2.572 -  1.134 sec      :    26.67 %
      1.134 -  0.500 sec      :    25.42 %
  
  
  ***************************
  Subcatchment Runoff Summary
  ***************************
  
  ------------------------------------------------------------------------------------------------------------------------------
                            Total      Total      Total      Total     Imperv       Perv      Total       Total     Peak  Runoff
                           Precip      Runon       Evap      Infil     Runoff     Runoff     Runoff      Runoff   Runoff   Coeff
  Subcatchment                 mm         mm         mm         mm         mm         mm         mm    10^6 ltr      LPS
  ------------------------------------------------------------------------------------------------------------------------------
  sub60                     78.74       0.00       0.00       1.41      52.56       5.88      58.44        0.77   516.76   0.742
  sub61                     78.74       0.00       0.00       2.17      52.51       8.78      61.29        1.12   753.63   0.778
  sub62                     78.74       0.00       0.00       0.96      55.98       4.00      59.98        1.64  1030.59   0.762
  sub63                     78.74       0.00       0.00       3.95      44.97      14.75      59.72        1.36   850.49   0.758
  sub64                     78.74       0.00       0.00       1.90      51.21       7.30      58.52        1.41   838.42   0.743
  sub65                     78.74       0.00       0.00       1.74      55.28       6.67      61.95        1.71   981.66   0.787
  sub66                     78.74       0.00       0.00       4.58      43.50      13.53      57.03        2.66  1270.74   0.724
  sub67                     78.74       0.00       0.00       0.95      57.39       4.13      61.51        1.14   795.91   0.781
  sub68                     78.74       0.00       0.00       1.66      50.69       6.74      57.42        1.58  1029.04   0.729
  sub69                     78.74       0.00       0.00       1.52      52.96       7.84      60.80        2.25  1270.46   0.772
  sub70                     78.74       0.00       0.00       5.06      42.44      16.86      59.30        1.71   731.78   0.753
  sub71                     78.74       0.00       0.00       0.88      50.86       3.62      54.48        1.42   847.63   0.692
  sub72                     78.74       0.00       0.00       0.84      54.94       3.37      58.31        0.80   437.40   0.741
  

  ***********************
  LID Performance Summary
  ***********************

  --------------------------------------------------------------------------------------------------------------------
                                         Total      Evap     Infil   Surface    Drain    Initial     Final  Continuity
                                        Inflow      Loss      Loss   Outflow   Outflow   Storage   Storage       Error
  Subcatchment      LID Control             mm        mm        mm        mm        mm        mm        mm           %
  --------------------------------------------------------------------------------------------------------------------
  sub60             GreenRoof            78.74      0.00      0.00      0.00      0.00      7.05     85.83       -0.05
  sub61             GreenRoof            78.74      0.00      0.00      0.00      0.00      7.05     85.83       -0.05
  sub62             GreenRoof            78.74      0.00      0.00      0.00      0.00      7.05     85.83       -0.05
  sub63             GreenRoof            78.74      0.00      0.00      0.00      0.00      7.05     85.83       -0.05
  sub64             GreenRoof            78.74      0.00      0.00      0.00      0.00      7.05     85.83       -0.05
  sub65             GreenRoof            78.74      0.00      0.00      0.00      0.00      7.05     85.83       -0.05
  sub66             GreenRoof            78.74      0.00      0.00      0.00      0.00      7.05     85.83       -0.05
  sub67             GreenRoof            78.74      0.00      0.00      0.00      0.00      7.05     85.83       -0.05
  sub68             GreenRoof            78.74      0.00      0.00      0.00      0.00      7.05     85.83       -0.05
  sub69             GreenRoof            78.74      0.00      0.00      0.00      0.00      7.05     85.83       -0.05
  sub70             GreenRoof            78.74      0.00      0.00      0.00      0.00      7.05     85.83       -0.05
  sub71             GreenRoof            78.74      0.00      0.00      0.00      0.00      7.05     85.83       -0.05
  sub72             GreenRoof            78.74      0.00      0.00      0.00      0.00      7.05     85.83       -0.05
  
  ******************
  Node Depth Summary
  ******************
  
  ---------------------------------------------------------------------------------
                                 Average  Maximum  Maximum  Time of Max    Reported
                                   Depth    Depth      HGL   Occurrence   Max Depth
  Node                 Type       Meters   Meters   Meters  days hr:min      Meters
  ---------------------------------------------------------------------------------
  WS02001211           JUNCTION     0.76     0.78     5.62     0  03:19        0.78
  WS02001212           JUNCTION     0.46     0.49     5.55     0  03:12        0.49
  WS02001213           JUNCTION     0.68     0.73     5.49     0  03:12        0.73
  WS02003059           JUNCTION     0.73     0.78     5.47     0  03:11        0.78
  WS02003060           JUNCTION     0.38     0.47     5.41     0  03:11        0.47
  WS02003066           JUNCTION     0.16     0.27     5.82     0  03:10        0.27
  WS02003067           JUNCTION     0.44     0.65     5.97     0  03:10        0.65
  WS02003069           JUNCTION     0.42     0.54     5.12     0  03:11        0.54
  WS02003072           JUNCTION     0.49     0.60     4.97     0  03:12        0.60
  WS02003073           JUNCTION     0.29     0.37     4.43     0  03:13        0.37
  WS02004138           JUNCTION     0.19     0.20     7.45     0  00:00        0.19
  WS02004139           JUNCTION     0.71     0.73     5.64     0  03:14        0.73
  WS02004401           JUNCTION     0.52     0.75     6.75     0  03:07        0.75
  WS02004402           JUNCTION     0.55     0.78     6.74     0  03:07        0.78
  WS02004403           JUNCTION     0.58     0.80     6.73     0  03:08        0.80
  WS02004404           JUNCTION     0.65     0.88     6.73     0  03:08        0.88
  WS02004405           JUNCTION     0.65     0.88     6.73     0  03:08        0.87
  WS02004406           JUNCTION     0.67     0.88     6.71     0  03:08        0.88
  WS02004407           JUNCTION     0.14     0.26     6.57     0  03:08        0.26
  WS02004409           JUNCTION     0.31     0.57     6.34     0  03:09        0.57
  WS02004410           JUNCTION     0.34     0.59     6.31     0  03:09        0.59
  WS02004411           JUNCTION     0.36     0.61     6.29     0  03:09        0.61
  WS02004412           JUNCTION     0.39     0.62     6.26     0  03:10        0.62
  WS02004413           JUNCTION     0.55     0.79     6.26     0  03:10        0.79
  WS02006109           JUNCTION     0.57     0.83     7.45     0  02:29        0.83
  WS02006110           JUNCTION     0.58     0.82     7.41     0  02:28        0.82
  WS02006111           JUNCTION     0.15     0.25     6.96     0  03:06        0.25
  WS02006112           JUNCTION     0.67     0.93     6.82     0  03:06        0.93
  WS02006113           JUNCTION     0.22     0.39     7.29     0  03:26        0.39
  WS02006115           JUNCTION     0.40     0.65     6.78     0  03:07        0.65
  WS02006116           JUNCTION     0.49     0.73     6.77     0  03:07        0.73
  WS02006228           JUNCTION     0.55     0.84     7.49     0  03:10        0.84
  WS02006229           JUNCTION     0.52     0.84     7.53     0  01:42        0.83
  WS02006230           JUNCTION     0.51     0.86     7.60     0  03:09        0.86
  WS02006231           JUNCTION     0.32     0.60     7.72     0  03:10        0.60
  WS02006232           JUNCTION     0.45     0.75     7.79     0  03:09        0.75
  WS02006234           JUNCTION     0.36     0.71     7.87     0  03:09        0.71
  WS02006235           JUNCTION     0.39     0.76     7.93     0  01:48        0.76
  WS02006238           JUNCTION     0.42     0.81     7.95     0  01:50        0.80
  WS02006239           JUNCTION     0.39     0.81     8.02     0  01:48        0.80
  WS02006240           JUNCTION     0.37     0.79     8.08     0  01:48        0.79
  WS02006242           JUNCTION     0.44     0.90     8.17     0  01:50        0.90
  WS02006243           JUNCTION     0.36     0.84     8.26     0  03:09        0.83
  WS02006245           JUNCTION     0.37     0.85     8.34     0  01:48        0.85
  WS02006247           JUNCTION     0.40     0.89     8.39     0  02:30        0.89
  WS02006248           JUNCTION     0.36     0.86     8.44     0  01:48        0.85
  WS02006249           JUNCTION     0.40     0.89     8.49     0  02:23        0.89
  WS02006251           JUNCTION     0.39     0.91     8.58     0  03:11        0.91
  WS02006252           JUNCTION     0.30     1.50     9.74     0  00:00        0.96
  WS02006256           JUNCTION     0.62     2.35     9.28     0  00:00        2.35
  WSF200               JUNCTION     0.13     0.25     5.48     0  03:11        0.25
  YS02001580           JUNCTION     0.11     1.05     9.59     0  01:44        0.79
  YS02001583           JUNCTION     0.14     1.02     9.52     0  01:44        0.83
  YS02001586           JUNCTION     0.21     1.13     9.30     0  01:44        1.13
  YS02001590           JUNCTION     0.31     1.40     9.26     0  01:44        1.40
  YS02001593           JUNCTION     0.25     1.46     9.32     0  01:44        1.46
  YS02001596           JUNCTION     0.47     1.80     9.22     0  01:44        1.80
  YS02001600           JUNCTION     0.71     1.87     9.00     0  01:43        1.87
  YS02001601           JUNCTION     0.97     2.06     8.90     0  01:43        2.06
  YS02001602           JUNCTION     0.88     1.87     8.77     0  01:43        1.87
  YS02001605           JUNCTION     0.85     1.78     8.68     0  01:43        1.78
  YS02001607           JUNCTION     0.85     1.68     8.53     0  01:43        1.64
  YS02001610           JUNCTION     0.90     1.68     8.48     0  01:43        1.68
  YS02001613           JUNCTION     0.85     1.70     8.54     0  01:43        1.68
  YS02001616           JUNCTION     0.79     1.61     8.52     0  01:43        1.61
  YS02001619           JUNCTION     0.77     1.61     8.54     0  01:43        1.61
  YS02001622           JUNCTION     0.78     1.61     8.52     0  01:46        1.61
  YS02001625           JUNCTION     1.05     1.78     8.38     0  01:43        1.78
  YS02001629           JUNCTION     1.08     1.85     8.40     0  01:43        1.85
  YS02001633           JUNCTION     1.16     2.03     8.48     0  01:47        2.03
  YS02001641           JUNCTION     1.15     1.95     8.39     0  01:47        1.94
  YS02001644           JUNCTION     1.15     1.92     8.35     0  01:47        1.92
  YS02001647           JUNCTION     0.96     1.80     8.41     0  01:48        1.72
  YS02001649           JUNCTION     1.14     2.05     8.44     0  01:48        1.93
  YS02001652           JUNCTION     0.96     1.97     8.57     0  01:48        1.89
  YS02001655           JUNCTION     0.74     2.17     9.02     0  01:48        2.17
  YS02001658           JUNCTION     0.51     2.30     9.44     0  01:48        2.30
  YS02001661           JUNCTION     0.30     1.35     8.75     0  01:48        1.21
  YS02001664           JUNCTION     0.06     0.83     8.75     0  01:48        0.75
  YS02001745           JUNCTION     0.19     1.53     9.05     0  01:48        0.77
  YS02001748           JUNCTION     0.54     1.81     8.89     0  01:48        1.19
  YS02001751           JUNCTION     0.70     1.89     8.77     0  01:48        1.38
  YS02001754           JUNCTION     0.93     2.01     8.61     0  01:48        1.62
  YS02001757           JUNCTION     1.24     2.15     8.41     0  01:48        1.99
  YS02001759           JUNCTION     1.15     2.21     8.57     0  06:13        2.21
  YS02001762           JUNCTION     1.12     2.15     8.55     0  06:13        2.15
  YS02001765           JUNCTION     1.07     2.07     8.52     0  01:48        1.91
  YS02001767           JUNCTION     1.04     2.01     8.50     0  01:48        1.89
  YS02001770           JUNCTION     1.05     1.95     8.44     0  01:48        1.93
  YS02001774           JUNCTION     1.11     2.00     8.42     0  01:48        1.98
  YS02001779           JUNCTION     0.87     1.68     8.37     0  01:46        1.68
  YS02001783           JUNCTION     0.52     1.88     8.02     0  01:45        1.49
  YS02001784           JUNCTION     0.57     1.84     7.91     0  01:45        1.44
  YS02001786           JUNCTION     0.58     1.69     7.72     0  01:45        1.28
  YS02001788           JUNCTION     0.59     1.65     7.63     0  01:45        1.15
  YS02001790           JUNCTION     0.84     1.76     7.40     0  01:45        1.30
  YS02001791           JUNCTION     0.96     2.61     8.08     0  06:13        2.61
  YS02001793           JUNCTION     1.46     2.51     7.34     0  06:13        2.51
  YS02001882           JUNCTION     0.31     1.83     8.55     0  01:46        1.65
  YS02001884           JUNCTION     0.40     1.93     8.55     0  01:46        1.75
  YS02001887           JUNCTION     0.48     1.93     8.47     0  01:46        1.84
  YS02001890           JUNCTION     0.51     1.81     8.32     0  01:45        1.81
  YS02001895           JUNCTION     0.28     1.67     8.42     0  01:46        1.56
  YS02001898           JUNCTION     0.29     1.76     8.50     0  01:46        1.56
  YS02001901           JUNCTION     0.40     1.87     8.48     0  01:46        1.67
  YS02001904           JUNCTION     0.38     1.77     8.40     0  01:46        1.63
  YS02001907           JUNCTION     0.70     1.96     8.25     0  01:45        1.96
  YS02001910           JUNCTION     0.50     1.99     8.50     0  01:47        1.90
  YS02001915           JUNCTION     0.31     1.93     8.65     0  01:47        1.79
  YS02001918           JUNCTION     0.17     1.81     8.88     0  01:47        1.45
  YS02001920           JUNCTION     0.25     2.14     9.15     0  01:47        1.53
  YS02001923           JUNCTION     0.13     2.03     9.29     0  01:47        1.30
  YS02001926           JUNCTION     0.15     1.90     9.35     0  01:47        1.14
  YS02001929           JUNCTION     0.08     1.76     9.45     0  01:47        1.38
  YS02006553           JUNCTION     0.70     2.07     8.36     0  01:46        1.99
  YS02006556           JUNCTION     0.68     2.15     8.46     0  01:46        1.98
  YS02006558           JUNCTION     0.72     2.20     8.47     0  01:46        2.03
  YS02006561           JUNCTION     0.17     1.53     8.19     0  01:45        1.12
  YS02163301           JUNCTION     1.10     1.93     8.45     0  01:46        1.92
  YS02163601           JUNCTION     1.20     2.05     8.44     0  01:47        2.02
  YS02164001           JUNCTION     1.14     1.96     8.42     0  01:47        1.92
  CC-1                 OUTFALL      0.00     0.00     0.00     0  00:00        0.00
  CC-2                 OUTFALL      0.00     0.00     0.00     0  00:00        0.00
  JK-1                 OUTFALL      0.00     0.00     0.00     0  00:00        0.00
  JK-2                 OUTFALL      0.00     0.00     0.00     0  00:00        0.00
  WSC                  OUTFALL      0.29     0.37     1.04     0  03:13        0.37
  CC-storage           STORAGE      1.83     2.30     7.80     0  02:18        2.30
  JK-storage           STORAGE      4.87     5.80     6.60     0  01:45        5.80
  XR-storage           STORAGE      0.20     5.00     3.00     0  00:00        4.91
  
  
  *******************
  Node Inflow Summary
  *******************
  
  -------------------------------------------------------------------------------------------------
                                  Maximum  Maximum                  Lateral       Total        Flow
                                  Lateral    Total  Time of Max      Inflow      Inflow     Balance
                                   Inflow   Inflow   Occurrence      Volume      Volume       Error
  Node                 Type           LPS      LPS  days hr:min    10^6 ltr    10^6 ltr     Percent
  -------------------------------------------------------------------------------------------------
  WS02001211           JUNCTION      7.35   389.14     0  03:39       0.212        11.1       0.354
  WS02001212           JUNCTION      0.00   390.84     0  03:39           0        11.1       0.214
  WS02001213           JUNCTION      0.00   392.60     0  03:40           0        11.1       0.249
  WS02003059           JUNCTION      0.00   395.64     0  03:40           0          11       0.344
  WS02003060           JUNCTION     16.53   816.05     0  03:11       0.476        15.5       0.176
  WS02003066           JUNCTION      0.00   411.86     0  03:10           0        4.06       0.081
  WS02003067           JUNCTION      0.00   411.86     0  03:10           0        4.07       0.176
  WS02003069           JUNCTION      0.32   816.36     0  03:11     0.00922        15.5       0.191
  WS02003072           JUNCTION      0.00   816.35     0  03:12           0        15.5       0.237
  WS02003073           JUNCTION      1.82   818.17     0  03:12      0.0524        15.5       0.268
  WS02004138           JUNCTION      0.00   380.00     0  00:00           0        10.9       0.059
  WS02004139           JUNCTION      0.32   395.52     0  00:00     0.00924        10.9       0.413
  WS02004401           JUNCTION      0.00   412.16     0  03:07           0        4.23       0.349
  WS02004402           JUNCTION      0.00   412.00     0  03:07           0        4.22       0.342
  WS02004403           JUNCTION      0.00   412.05     0  03:07           0         4.2       0.324
  WS02004404           JUNCTION      0.16   412.11     0  03:08     0.00467        4.19       0.275
  WS02004405           JUNCTION      0.04   412.12     0  03:08      0.0011        4.18       0.367
  WS02004406           JUNCTION      0.00   412.23     0  03:08           0        4.17       0.638
  WS02004407           JUNCTION      0.00   412.04     0  03:08           0        4.14       0.094
  WS02004409           JUNCTION      0.00   411.99     0  03:08           0        4.14       0.233
  WS02004410           JUNCTION      0.00   411.92     0  03:09           0        4.13       0.290
  WS02004411           JUNCTION      0.00   411.92     0  03:09           0        4.12       0.314
  WS02004412           JUNCTION      0.00   411.89     0  03:09           0         4.1       0.362
  WS02004413           JUNCTION      0.00   411.89     0  03:14           0        4.09       0.571
  WS02006109           JUNCTION      1.23   411.69     0  03:10      0.0354        4.29      -0.034
  WS02006110           JUNCTION      0.00   411.69     0  01:53           0        4.29       0.243
  WS02006111           JUNCTION      0.00   423.51     0  03:26           0        4.28       0.043
  WS02006112           JUNCTION      0.00   413.96     0  03:06           0        4.28       0.528
  WS02006113           JUNCTION      0.00   411.95     0  03:06           0        4.28       0.090
  WS02006115           JUNCTION      0.00   412.34     0  03:06           0        4.25       0.273
  WS02006116           JUNCTION      0.00   412.17     0  03:07           0        4.24       0.226
  WS02006228           JUNCTION      0.00   410.47     0  03:10           0        4.25      -0.002
  WS02006229           JUNCTION      0.00   410.47     0  03:10           0        4.27       0.268
  WS02006230           JUNCTION     10.28   410.47     0  01:48       0.296        4.27       0.197
  WS02006231           JUNCTION      0.00   400.28     0  03:09           0        3.98       0.030
  WS02006232           JUNCTION      0.00   400.26     0  03:09           0        4.01       0.656
  WS02006234           JUNCTION      0.00   401.53     0  01:50           0           4      -0.143
  WS02006235           JUNCTION      0.00   401.68     0  01:47           0        4.03       0.521
  WS02006238           JUNCTION      0.00   401.49     0  02:24           0        3.98      -0.753
  WS02006239           JUNCTION      0.00   401.48     0  01:50           0        3.96      -0.394
  WS02006240           JUNCTION      0.00   400.71     0  01:50           0        3.96       0.014
  WS02006242           JUNCTION      0.00   400.75     0  01:49           0        3.96       0.229
  WS02006243           JUNCTION      0.00   400.83     0  01:50           0        3.96      -0.159
  WS02006245           JUNCTION      0.00   401.15     0  01:48           0           4       0.959
  WS02006247           JUNCTION      0.00   400.87     0  01:49           0           4       0.082
  WS02006248           JUNCTION      0.00   400.91     0  01:49           0           4       0.045
  WS02006249           JUNCTION      0.00   477.70     0  02:06           0        4.04       1.010
  WS02006251           JUNCTION      0.08   406.14     0  01:44     0.00222        4.04      -0.024
  WS02006252           JUNCTION      0.00   400.00     0  00:00           0        4.03      -0.181
  WS02006256           JUNCTION      0.00   300.00     0  00:00           0      0.0245      -6.495
  WSF200               JUNCTION      0.00   411.86     0  03:10           0        4.06       0.070
  YS02001580           JUNCTION      0.00   116.42     0  01:43           0     0.00427       0.939
  YS02001583           JUNCTION      0.00   189.58     0  01:43           0      0.0148      -7.002
  YS02001586           JUNCTION    731.78   731.81     0  01:52        1.71        1.72       0.073
  YS02001590           JUNCTION      0.00   317.96     0  01:48           0        1.34       0.011
  YS02001593           JUNCTION      0.00   318.13     0  01:50           0        1.34      -0.006
  YS02001596           JUNCTION      0.00   318.09     0  01:49           0        1.36      -0.077
  YS02001600           JUNCTION      0.00   318.28     0  01:48           0        1.39       0.189
  YS02001601           JUNCTION   1270.46  1588.20     0  01:51        2.25        3.65       0.239
  YS02001602           JUNCTION      0.00   531.50     0  01:43           0        2.31       0.322
  YS02001605           JUNCTION      0.00   531.39     0  01:43           0        2.14       0.594
  YS02001607           JUNCTION      0.00   531.49     0  01:43           0        2.15       0.684
  YS02001610           JUNCTION      0.00   688.38     0  01:52           0        2.38       0.625
  YS02001613           JUNCTION      0.00   540.62     0  01:43           0        1.95       0.758
  YS02001616           JUNCTION      0.00   549.35     0  01:43           0        1.98       0.607
  YS02001619           JUNCTION   1270.74  1270.74     0  01:52        2.66        4.47       0.247
  YS02001622           JUNCTION      0.00   952.68     0  01:49           0         4.3       0.398
  YS02001625           JUNCTION      0.00  1290.23     0  01:53           0        4.48       0.866
  YS02001629           JUNCTION      0.00   951.23     0  01:43           0        3.28       0.428
  YS02001633           JUNCTION    981.86  1418.60     0  01:45        1.71        4.74       0.655
  YS02001641           JUNCTION      0.00  1415.95     0  01:45           0        4.46       0.440
  YS02001644           JUNCTION    838.46  1847.99     0  01:46        1.41        5.84       0.426
  YS02001647           JUNCTION      0.00  1849.38     0  01:46           0        5.49       0.419
  YS02001649           JUNCTION      0.00  2098.58     0  01:45           0        6.85       0.519
  YS02001652           JUNCTION      0.00   967.85     0  01:49           0        1.44       1.249
  YS02001655           JUNCTION      0.15   966.44     0  01:49     0.00443        1.45       1.062
  YS02001658           JUNCTION      0.00   965.51     0  01:49           0        1.42       0.243
  YS02001661           JUNCTION      0.00   961.57     0  01:49           0        1.38      -0.020
  YS02001664           JUNCTION    850.49   850.49     0  01:50        1.36        1.36      -0.028
  YS02001745           JUNCTION    516.76   571.99     0  01:47       0.768       0.789       0.183
  YS02001748           JUNCTION      0.04   622.59     0  01:48      0.0013       0.827       0.386
  YS02001751           JUNCTION      0.01   622.71     0  01:48    0.000317       0.855       1.667
  YS02001754           JUNCTION      0.26   625.29     0  01:48     0.00749       0.866       2.219
  YS02001757           JUNCTION      0.00  3534.50     0  01:48           0        10.1       0.935
  YS02001759           JUNCTION    753.67  1449.03     0  01:48        1.13        2.59       0.813
  YS02001762           JUNCTION      0.00   807.78     0  01:48           0        1.48       1.360
  YS02001765           JUNCTION      0.00   813.40     0  01:48           0        1.49       1.543
  YS02001767           JUNCTION      0.54   816.28     0  01:48      0.0154        1.52       2.197
  YS02001770           JUNCTION   1030.75  1030.75     0  01:50        1.65        1.71       1.729
  YS02001774           JUNCTION      0.00   416.62     0  01:50           0       0.225      12.060
  YS02001779           JUNCTION      0.01   418.21     0  01:50    0.000144       0.169       6.935
  YS02001783           JUNCTION      0.00   981.58     0  01:49           0         3.7       0.190
  YS02001784           JUNCTION      1.06   982.96     0  01:49      0.0305        3.72       0.291
  YS02001786           JUNCTION      0.06   982.70     0  01:49     0.00162        3.71       0.361
  YS02001788           JUNCTION      0.07   982.22     0  01:48     0.00204         3.7       0.361
  YS02001790           JUNCTION      0.15   982.92     0  01:48     0.00446        3.69       0.472
  YS02001791           JUNCTION      0.00   982.93     0  01:48           0        3.67       0.345
  YS02001793           JUNCTION      0.00   982.96     0  01:48           0        3.66       0.460
  YS02001882           JUNCTION      0.00    50.29     0  01:45           0      0.0125       4.089
  YS02001884           JUNCTION      0.00    76.25     0  01:44           0      0.0488       4.860
  YS02001887           JUNCTION    796.36   800.51     0  01:49        1.16        1.19       0.367
  YS02001890           JUNCTION      0.00   802.00     0  01:49           0        1.15       0.449
  YS02001895           JUNCTION      0.00   516.28     0  01:55           0        1.06       0.158
  YS02001898           JUNCTION      0.00   516.28     0  01:55           0        1.06      -0.034
  YS02001901           JUNCTION      0.00   529.85     0  01:46           0        1.06       0.299
  YS02001904           JUNCTION      0.00   524.49     0  01:46           0        1.06       0.257
  YS02001907           JUNCTION      0.00  1883.49     0  01:50           0        3.38       0.534
  YS02001910           JUNCTION      0.00  1324.64     0  01:50           0        2.32       0.310
  YS02001915           JUNCTION    847.65  1324.13     0  01:50        1.43        2.36       0.048
  YS02001918           JUNCTION      0.00   670.64     0  01:46           0       0.966      -0.063
  YS02001920           JUNCTION      2.87   568.28     0  01:46      0.0827       0.947       0.007
  YS02001923           JUNCTION      0.04   804.46     0  01:46     0.00109       0.846      -0.223
  YS02001926           JUNCTION      0.05  1008.48     0  01:46      0.0015       0.824      -0.032
  YS02001929           JUNCTION    437.40   773.66     0  01:46       0.802       0.807      -0.115
  YS02006553           JUNCTION      0.00   672.29     0  02:09           0        2.15       0.552
  YS02006556           JUNCTION      0.00   672.21     0  02:09           0        2.16       0.373
  YS02006558           JUNCTION   1029.92  1056.11     0  01:45        1.61        3.73       0.091
  YS02006561           JUNCTION      0.00  1041.83     0  01:45           0         3.7      -0.015
  YS02163301           JUNCTION      0.00   940.60     0  01:45           0        3.27       0.658
  YS02163601           JUNCTION      0.11  1416.79     0  01:45     0.00317        4.49       0.636
  YS02164001           JUNCTION      0.00  1414.62     0  01:45           0        4.47       0.393
  CC-1                 OUTFALL       0.00   683.00     0  00:00           0       0.411       0.000
  CC-2                 OUTFALL       0.00   683.00     0  00:00           0       0.208       0.000
  JK-1                 OUTFALL       0.00  1000.00     0  00:00           0       0.105       0.000
  JK-2                 OUTFALL       0.00  1000.00     0  00:00           0      0.0791       0.000
  WSC                  OUTFALL       0.00   818.16     0  03:13           0        15.4       0.000
  CC-storage           STORAGE       0.00  3534.54     0  01:48           0        11.9       0.268
  JK-storage           STORAGE       0.00   994.10     0  01:43           0         3.8       0.423
  XR-storage           STORAGE     200.00   200.00     0  00:00        5.76        6.36     -41.886
  
  
  **********************
  Node Surcharge Summary
  **********************
  
  Surcharging occurs when water rises above the top of the highest conduit.
  ---------------------------------------------------------------------
                                               Max. Height   Min. Depth
                                   Hours       Above Crown    Below Rim
  Node                 Type      Surcharged         Meters       Meters
  ---------------------------------------------------------------------
  WS02006109           JUNCTION        1.46          0.015        1.805
  WS02006228           JUNCTION        1.44          0.013        2.187
  WS02006229           JUNCTION        1.47          0.038        2.412
  WS02006232           JUNCTION        1.57          0.050        1.430
  WS02006235           JUNCTION        1.47          0.054        1.236
  WS02006238           JUNCTION        1.51          0.085        1.345
  WS02006239           JUNCTION        1.48          0.066        1.224
  WS02006240           JUNCTION        1.48          0.080        1.310
  WS02006242           JUNCTION        1.63          0.174        0.646
  WS02006243           JUNCTION        1.51          0.131        0.639
  WS02006245           JUNCTION        1.51          0.144        0.706
  WS02006247           JUNCTION        1.54          0.179        0.581
  WS02006248           JUNCTION        1.50          0.136        0.244
  WS02006249           JUNCTION        1.53          0.194        0.196
  WS02006252           JUNCTION        2.60          1.100        0.000
  WS02006256           JUNCTION        5.86          2.050        0.000
  YS02001580           JUNCTION        0.63          0.450        0.000
  YS02001583           JUNCTION        0.64          0.383        0.117
  YS02001586           JUNCTION        0.90          0.510        0.000
  YS02001590           JUNCTION        1.02          0.750        0.000
  YS02001593           JUNCTION        1.03          0.840        0.000
  YS02001596           JUNCTION        1.29          1.070        0.000
  YS02001600           JUNCTION        1.65          1.190        0.000
  YS02001601           JUNCTION        6.29          1.440        0.000
  YS02001602           JUNCTION        6.01          1.270        0.000
  YS02001605           JUNCTION        5.98          1.180        0.000
  YS02001607           JUNCTION        1.37          0.680        0.000
  YS02001610           JUNCTION        1.53          0.680        0.000
  YS02001613           JUNCTION        1.39          0.700        0.000
  YS02001616           JUNCTION        1.31          0.610        0.000
  YS02001619           JUNCTION        1.30          0.610        0.000
  YS02001622           JUNCTION        1.31          0.612        0.008
  YS02001625           JUNCTION        4.96          0.780        0.000
  YS02001629           JUNCTION        1.28          0.470        0.000
  YS02001633           JUNCTION        5.98          1.008        0.052
  YS02001641           JUNCTION        6.29          0.955        0.145
  YS02001644           JUNCTION        6.28          0.920        0.000
  YS02001647           JUNCTION        4.86          0.805        0.095
  YS02001649           JUNCTION        6.24          1.050        0.000
  YS02001652           JUNCTION        4.78          0.940        0.190
  YS02001655           JUNCTION        1.24          1.167        0.033
  YS02001658           JUNCTION        0.29          1.300        0.000
  YS02001661           JUNCTION        0.02          0.279        1.111
  YS02001745           JUNCTION        0.01          0.530        0.820
  YS02001748           JUNCTION        0.16          0.731        0.459
  YS02001751           JUNCTION        1.07          0.894        0.306
  YS02001754           JUNCTION        3.97          0.956        0.194
  YS02001757           JUNCTION        6.23          1.153        0.057
  YS02001759           JUNCTION        6.23          1.210        0.000
  YS02001762           JUNCTION        6.23          1.150        0.000
  YS02001765           JUNCTION        6.17          1.067        0.033
  YS02001767           JUNCTION        5.84          1.011        0.019
  YS02001770           JUNCTION        5.67          0.920        0.000
  YS02001774           JUNCTION        6.22          1.001        0.049
  YS02001779           JUNCTION        3.64          0.680        0.000
  YS02001783           JUNCTION        0.70          1.084        0.516
  YS02001784           JUNCTION        0.70          1.042        0.448
  YS02001786           JUNCTION        0.69          0.894        0.536
  YS02001788           JUNCTION        0.68          0.850        0.630
  YS02001790           JUNCTION        6.25          0.960        0.197
  YS02001791           JUNCTION        6.25          1.808        0.112
  YS02001793           JUNCTION        6.27          1.509        1.091
  YS02001882           JUNCTION        0.53          0.830        0.000
  YS02001884           JUNCTION        0.54          0.870        0.000
  YS02001887           JUNCTION        0.58          0.880        0.070
  YS02001890           JUNCTION        0.59          0.760        0.000
  YS02001895           JUNCTION        0.51          0.670        0.080
  YS02001898           JUNCTION        0.51          0.733        0.007
  YS02001901           JUNCTION        0.56          0.870        0.000
  YS02001904           JUNCTION        0.55          0.771        0.079
  YS02001907           JUNCTION        0.77          0.950        0.000
  YS02001910           JUNCTION        0.61          0.991        0.109
  YS02001915           JUNCTION        0.52          0.932        0.068
  YS02001918           JUNCTION        0.43          0.810        0.000
  YS02001920           JUNCTION        0.45          1.140        0.000
  YS02001923           JUNCTION        0.05          0.820        0.000
  YS02001926           JUNCTION        0.09          0.900        0.000
  YS02001929           JUNCTION        0.01          0.761        0.019
  YS02006553           JUNCTION        0.79          1.074        0.116
  YS02006556           JUNCTION        0.70          1.106        0.244
  YS02006558           JUNCTION        0.69          1.100        0.300
  YS02006561           JUNCTION        0.47          0.729        0.421
  YS02163301           JUNCTION        5.79          0.934        0.096
  YS02163601           JUNCTION        6.32          1.047        0.033
  YS02164001           JUNCTION        6.13          0.962        0.138
  
  
  *********************
  Node Flooding Summary
  *********************
  
  Flooding refers to all water that overflows a node, whether it ponds or not.
  --------------------------------------------------------------------------
                                                             Total   Maximum
                                 Maximum   Time of Max       Flood    Ponded
                        Hours       Rate    Occurrence      Volume     Depth
  Node                 Flooded       LPS   days hr:min    10^6 ltr    Meters
  --------------------------------------------------------------------------
  WS02006252              0.01    245.63      0  00:00       0.000     0.000
  WS02006256              0.02    293.19      0  00:00       0.005     0.000
  YS02001580              0.01     96.82      0  01:44       0.000     0.000
  YS02001586              0.51    414.28      0  01:52       0.371     0.000
  YS02001590              0.01      6.41      0  01:44       0.000     0.000
  YS02001593              0.01     15.77      0  01:44       0.000     0.000
  YS02001596              0.01      4.18      0  01:44       0.000     0.000
  YS02001600              0.01      4.40      0  01:44       0.000     0.000
  YS02001601              0.76   1190.22      0  01:51       1.335     0.000
  YS02001602              0.80     61.96      0  01:48       0.163     0.000
  YS02001605              0.01      5.66      0  01:43       0.000     0.000
  YS02001607              0.01     11.70      0  01:43       0.000     0.000
  YS02001610              0.57    688.38      0  01:52       0.661     0.000
  YS02001613              0.01      8.61      0  01:43       0.000     0.000
  YS02001616              0.01      9.91      0  01:43       0.000     0.000
  YS02001619              0.01      8.87      0  01:43       0.000     0.000
  YS02001625              0.74   1290.10      0  01:53       1.400     0.000
  YS02001629              0.10    297.04      0  01:49       0.062     0.000
  YS02001644              0.18    852.42      0  01:49       0.317     0.000
  YS02001649              0.01     36.88      0  01:48       0.000     0.000
  YS02001658              0.01    438.92      0  01:48       0.000     0.000
  YS02001759              0.01      1.04      0  06:13       0.000     0.000
  YS02001762              0.01      3.56      0  06:13       0.000     0.000
  YS02001770              0.01     33.15      0  01:48       0.000     0.000
  YS02001779              0.15    417.42      0  01:50       0.136     0.000
  YS02001882              0.01      9.37      0  01:46       0.000     0.000
  YS02001884              0.01      5.31      0  01:46       0.000     0.000
  YS02001890              0.15    295.36      0  01:49       0.087     0.000
  YS02001901              0.01      6.17      0  01:46       0.000     0.000
  YS02001907              0.37   1882.75      0  01:50       1.219     0.000
  YS02001918              0.01    312.74      0  01:47       0.005     0.000
  YS02001920              0.01    135.77      0  01:47       0.001     0.000
  YS02001923              0.01    262.14      0  01:47       0.001     0.000
  YS02001926              0.01    152.33      0  01:47       0.001     0.000
  CC-storage              0.79   1041.95      0  02:18       1.657     0.000
  JK-storage              6.22    983.06      0  01:48       3.279     0.000
  
  
  **********************
  Storage Volume Summary
  **********************
  
  ------------------------------------------------------------------------------------------------
                         Average    Avg   Evap  Exfil     Maximum    Max    Time of Max    Maximum
                          Volume   Pcnt   Pcnt   Pcnt      Volume   Pcnt     Occurrence    Outflow
  Storage Unit           1000 m³   Full   Loss   Loss     1000 m³   Full    days hr:min        LPS
  ------------------------------------------------------------------------------------------------
  CC-storage               5.112   79.8    0.0    0.0       6.410  100.0       0  02:18    1783.53
  JK-storage               0.244   83.9    0.0    0.0       0.291  100.0       0  01:45    2300.00
  XR-storage               0.024    1.7    0.0    0.0       0.600   41.7       0  00:00     380.00
  
  
  ***********************
  Outfall Loading Summary
  ***********************
  
  -----------------------------------------------------------
                         Flow       Avg       Max       Total
                         Freq      Flow      Flow      Volume
  Outfall Node           Pcnt       LPS       LPS    10^6 ltr
  -----------------------------------------------------------
  CC-1                   4.68    683.00    683.00       0.411
  CC-2                   0.89    683.00    683.00       0.208
  JK-1                   4.62    128.74   1000.00       0.105
  JK-2                   0.83    347.46   1000.00       0.079
  WSC                   99.95    550.00    818.16      15.440
  -----------------------------------------------------------
  System                22.19   2392.20   3366.35      16.244
  
  
  ********************
  Link Flow Summary
  ********************
  
  -----------------------------------------------------------------------------
                                 Maximum  Time of Max   Maximum    Max/    Max/
                                  |Flow|   Occurrence   |Veloc|    Full    Full
  Link                 Type          LPS  days hr:min     m/sec    Flow   Depth
  -----------------------------------------------------------------------------
  1                    CONDUIT    818.16     0  03:13      3.15    0.28    0.37
  WS02001211WS02001212 CONDUIT    390.84     0  03:39      0.78    0.30    0.64
  WS02001212WS02001213 CONDUIT    392.60     0  03:40      1.32    0.61    0.45
  WS02001213WS02003059 CONDUIT    395.64     0  03:40      0.85    0.65    0.75
  WS02003059WS02003060 CONDUIT    399.93     0  03:40      0.95    0.26    0.63
  WS02003060WS02003069 CONDUIT    816.04     0  03:11      1.80    0.32    0.42
  WS02003066WSF200     CONDUIT    411.86     0  03:10      2.69    0.07    0.19
  WS02003067WS02003066 CONDUIT    411.86     0  03:10      1.04    0.13    0.38
  WS02003069WS02003072 CONDUIT    816.35     0  03:12      1.55    0.39    0.47
  WS02003072WS02003073 CONDUIT    816.34     0  03:12      1.64    1.76    0.45
  WS02004138WS02004139 CONDUIT    395.20     0  00:00      3.65    0.08    0.43
  WS02004139WS02001211 CONDUIT    381.79     0  03:39      0.91    0.48    0.59
  WS02004401WS02004402 CONDUIT    412.00     0  03:07      0.99    0.49    0.77
  WS02004402WS02004403 CONDUIT    412.05     0  03:07      0.99    0.59    0.79
  WS02004403WS02004404 CONDUIT    411.95     0  03:08      0.93    0.30    0.84
  WS02004404WS02004405 CONDUIT    412.08     0  03:08      1.10    4.04    0.88
  WS02004405WS02004406 CONDUIT    412.23     0  03:08      1.03    0.81    0.88
  WS02004406WS02004407 CONDUIT    412.04     0  03:08      0.89    0.18    0.57
  WS02004407WS02004409 CONDUIT    411.99     0  03:08      1.42    0.15    0.42
  WS02004409WS02004410 CONDUIT    411.92     0  03:09      0.92    0.53    0.58
  WS02004410WS02004411 CONDUIT    411.92     0  03:09      0.85    0.56    0.60
  WS02004411WS02004412 CONDUIT    411.89     0  03:09      0.81    0.59    0.61
  WS02004412WS02004413 CONDUIT    411.89     0  03:14      0.70    0.28    0.70
  WS02004413WS02003067 CONDUIT    411.86     0  03:10      0.96    0.18    0.53
  WS02006109WS02006110 CONDUIT    411.69     0  01:53      0.84    0.79    0.94
  WS02006110WS02006113 CONDUIT    411.95     0  03:06      1.03    0.37    0.75
  WS02006111WS02006112 CONDUIT    413.96     0  03:06      1.83    0.20    0.65
  WS02006112WS02006115 CONDUIT    412.34     0  03:06      0.71    0.24    0.78
  WS02006113WS02006111 CONDUIT    423.51     0  03:26      2.25    0.51    0.40
  WS02006115WS02006116 CONDUIT    412.17     0  03:07      0.98    0.53    0.66
  WS02006116WS02004401 CONDUIT    412.16     0  03:07      1.00    0.57    0.74
  WS02006228WS02006109 CONDUIT    410.46     0  03:10      1.06    1.79    1.00
  WS02006229WS02006228 CONDUIT    410.47     0  03:10      1.13    1.36    1.00
  WS02006230WS02006229 CONDUIT    410.47     0  03:10      1.22    9.13    1.00
  WS02006231WS02006230 CONDUIT    400.19     0  01:48      1.36    6.07    0.77
  WS02006232WS02006231 CONDUIT    400.28     0  03:09      1.08    0.84    0.92
  WS02006234WS02006232 CONDUIT    400.26     0  03:09      1.40    0.81    1.00
  WS02006235WS02006234 CONDUIT    401.53     0  01:50      1.29    4.24    0.99
  WS02006238WS02006235 CONDUIT    401.68     0  01:47      1.45    0.90    1.00
  WS02006239WS02006238 CONDUIT    401.49     0  02:24      1.21    1.28    1.00
  WS02006240WS02006239 CONDUIT    401.48     0  01:50      1.31    1.26    1.00
  WS02006242WS02006240 CONDUIT    400.71     0  01:50      1.17    1.59    1.00
  WS02006243WS02006242 CONDUIT    400.75     0  01:49      1.42    0.86    1.00
  WS02006245WS02006243 CONDUIT    400.83     0  01:50      1.45    1.19    1.00
  WS02006247WS02006245 CONDUIT    401.15     0  01:48      1.43    3.18    1.00
  WS02006248WS02006247 CONDUIT    400.87     0  01:49      1.45    0.87    1.00
  WS02006249WS02006248 CONDUIT    400.91     0  01:49      1.41    2.20    1.00
  WS02006251WS02006249 CONDUIT    477.70     0  02:06      1.99    1.38    1.00
  WS02006252WS02006251 CONDUIT    406.06     0  01:44     26.28    1.49    1.00
  WS02006256WS02006235 CONDUIT    288.91     0  00:00      4.23    3.06    1.00
  WSF200WS02003060     CONDUIT    411.86     0  03:11      1.43    0.09    0.30
  YS02001580YS02001583 CONDUIT    116.42     0  01:43      0.73    0.45    1.00
  YS02001583YS02001586 CONDUIT    178.69     0  01:43      0.77    0.27    1.00
  YS02001586YS02001590 CONDUIT    317.96     0  01:48      1.27    0.56    1.00
  YS02001590YS02001593 CONDUIT    318.13     0  01:50      1.13    2.00    1.00
  YS02001593YS02001596 CONDUIT    318.09     0  01:49      1.62    0.50    1.00
  YS02001596YS02001600 CONDUIT    318.28     0  01:48      1.13    0.62    1.00
  YS02001600YS02001601 CONDUIT    317.83     0  02:07      1.12    0.55    1.00
  YS02001601YS02001602 CONDUIT    531.50     0  01:43      1.88    1.92    1.00
  YS02001602YS02001605 CONDUIT    531.39     0  01:43      1.88   11.25    1.00
  YS02001605YS02001607 CONDUIT    531.49     0  01:43      1.88    2.91    1.00
  YS02001607YS02001610 CONDUIT    535.94     0  01:43      0.68    0.51    1.00
  YS02001610YS02001613 CONDUIT    540.62     0  01:43      0.69    0.62    1.00
  YS02001613YS02001616 CONDUIT    549.35     0  01:43      0.70    0.47    1.00
  YS02001616YS02001619 CONDUIT    508.82     0  01:43      0.67    0.88    1.00
  YS02001619YS02001622 CONDUIT    952.68     0  01:49      1.21    1.40    1.00
  YS02001622YS02001625 CONDUIT    953.94     0  01:49      1.21    0.51    1.00
  YS02001625YS02001629 CONDUIT    951.23     0  01:43      1.21    0.45    1.00
  YS02001629YS02163301 CONDUIT    940.60     0  01:45      1.20    1.16    1.00
  YS02001633YS02163601 CONDUIT   1416.68     0  01:45      1.80    1.49    1.00
  YS02001641YS02001644 CONDUIT   1416.17     0  01:45      1.80    4.58    1.00
  YS02001644YS02001647 CONDUIT   1849.38     0  01:46      2.39    1.09    1.00
  YS02001647YS02001649 CONDUIT   1851.50     0  01:45      2.38    0.98    1.00
  YS02001649YS02001757 CONDUIT   2090.10     0  01:46      2.67    1.27    1.00
  YS02001652YS02001649 CONDUIT    968.54     0  01:49      1.23    0.48    1.00
  YS02001655YS02001652 CONDUIT    967.85     0  01:49      1.37    0.47    1.00
  YS02001658YS02001655 CONDUIT    966.28     0  01:49      1.94    0.41    1.00
  YS02001661YS02001658 CONDUIT    965.51     0  01:49      2.39    0.38    1.00
  YS02001664YS02001661 CONDUIT    961.57     0  01:49      2.46    0.30    0.91
  YS02001745YS02001748 CONDUIT    622.55     0  01:48      2.25    0.24    1.00
  YS02001748YS02001751 CONDUIT    622.70     0  01:48      1.73    0.31    1.00
  YS02001751YS02001754 CONDUIT    625.03     0  01:48      1.44    0.30    1.00
  YS02001754YS02001757 CONDUIT    631.95     0  01:48      0.80    0.25    1.00
  YS02001757CaochengTiaoxuchi CONDUIT   3534.54     0  01:48      4.50    1.53    1.00
  YS02001759YS02001757 CONDUIT   1447.56     0  01:48      1.84    1.03    1.00
  YS02001762YS02001759 CONDUIT    805.32     0  01:48      1.03    0.93    1.00
  YS02001765YS02001762 CONDUIT    807.78     0  01:48      1.03    0.76    1.00
  YS02001767YS02001765 CONDUIT    813.40     0  01:48      1.04    1.02    1.00
  YS02001770YS02001767 CONDUIT    815.74     0  01:48      1.04    3.23    1.00
  YS02001774YS02001770 CONDUIT    416.62     0  01:50      0.53    0.27    1.00
  YS02001779YS02001774 CONDUIT    418.21     0  01:50      0.53    0.21    1.00
  YS02001783YS02001784 CONDUIT    981.90     0  01:49      1.95    1.35    1.00
  YS02001784YS02001785 CONDUIT    982.65     0  01:49      1.95    2.29    1.00
  YS02001786YS02001788 CONDUIT    982.15     0  01:48      2.26    1.89    1.00
  YS02001788YS02001790 CONDUIT    982.77     0  01:48      2.37    0.72    1.00
  YS02001790YS02001791 CONDUIT    982.93     0  01:48      2.86    1.07    1.00
  YS02001791YS02001793 CONDUIT    982.96     0  01:48      5.58    0.42    1.00
  YS02001793JiankangQianchi CONDUIT    994.10     0  01:43     10.38    0.08    1.00
  YS02001882YS02001884 CONDUIT     50.29     0  01:45      0.16    0.06    1.00
  YS02001884YS02001887 CONDUIT     76.25     0  01:44      0.11    0.10    1.00
  YS02001887YS02001890 CONDUIT    802.00     0  01:49      1.02    1.37    1.00
  YS02001890YS02001895 CONDUIT    516.28     0  01:55      0.66    0.24    1.00
  YS02001895YS02001898 CONDUIT    516.28     0  01:55      0.66    0.90    1.00
  YS02001898YS02001901 CONDUIT    529.85     0  01:46      0.67    0.34    1.00
  YS02001901YS02001904 CONDUIT    524.49     0  01:46      0.67    0.81    1.00
  YS02001904YS02001907 CONDUIT    516.29     0  01:55      0.66    0.18    1.00
  YS02001907YS02006553 CONDUIT    672.29     0  02:09      0.75    0.79    1.00
  YS02001910YS02001907 CONDUIT   1324.57     0  01:50      1.69    0.75    1.00
  YS02001915YS02001910 CONDUIT   1324.64     0  01:50      1.69    0.66    1.00
  YS02001918YS02001915 CONDUIT    670.64     0  01:46      0.88    0.37    1.00
  YS02001920YS02001918 CONDUIT    565.41     0  01:46      0.72    0.55    1.00
  YS02001923YS02001920 CONDUIT    582.21     0  01:46      0.80    0.26    1.00
  YS02001926YS02001923 CONDUIT    780.13     0  01:46      1.25    1.11    1.00
  YS02001929YS02001926 CONDUIT    508.90     0  01:46      1.20    0.24    1.00
  YS02006553YS02006556 CONDUIT    672.21     0  02:09      0.86    0.58    1.00
  YS02006556YS02006558 CONDUIT    673.57     0  02:09      0.86    0.53    1.00
  YS02006558YS02006561 CONDUIT   1041.83     0  01:45      3.68    2.30    1.00
  YS02006561YS02001783 CONDUIT    981.58     0  01:49      2.17    0.51    1.00
  YS02163301YS02001633 CONDUIT    940.03     0  01:45      1.20    0.88    1.00
  YS02163601YS02164001 CONDUIT   1414.62     0  01:45      1.80    1.25    1.00
  YS02164001YS02001641 CONDUIT   1415.95     0  01:45      1.80    1.93    1.00
  CC-R1                PUMP       683.00     0  00:00              1.00
  CC-R2                PUMP       683.00     0  00:00              1.00
  CC-S1                PUMP       200.00     0  00:00              1.00
  CC-S2                PUMP       200.00     0  00:00              1.00
  JK-R1                PUMP      1000.00     0  00:00              1.00
  JK-R2                PUMP      1000.00     0  00:00              1.00
  JK-S                 PUMP       300.00     0  00:00              1.00
  XR-1                 PUMP        95.00     0  00:00              1.00
  XR-2                 PUMP        95.00     0  00:00              1.00
  XR-3                 PUMP        95.00     0  00:00              1.00
  XR-4                 PUMP        95.00     0  00:00              1.00
  
  
  ***************************
  Flow Classification Summary
  ***************************
  
  -------------------------------------------------------------------------------------
                      Adjusted    ---------- Fraction of Time in Flow Class ---------- 
                       /Actual         Up    Down  Sub   Sup   Up    Down  Norm  Inlet 
  Conduit               Length    Dry  Dry   Dry   Crit  Crit  Crit  Crit  Ltd   Ctrl  
  -------------------------------------------------------------------------------------
  1                       1.00   0.00  0.00  0.00  0.00  1.00  0.00  0.00  0.38  0.00
  WS02001211WS02001212    1.00   0.00  0.00  0.00  1.00  0.00  0.00  0.00  0.00  0.00
  WS02001212WS02001213    1.00   0.00  0.00  0.00  0.77  0.00  0.23  0.00  0.00  0.00
  WS02001213WS02003059    1.00   0.00  0.00  0.00  0.99  0.00  0.00  0.00  0.00  0.00
  WS02003059WS02003060    1.00   0.00  0.00  0.00  1.00  0.00  0.00  0.00  0.00  0.00
  WS02003060WS02003069    1.00   0.00  0.00  0.00  0.99  0.01  0.00  0.00  0.00  0.00
  WS02003066WSF200        1.00   0.02  0.10  0.00  0.00  0.88  0.00  0.00  0.84  0.00
  WS02003067WS02003066    1.00   0.10  0.02  0.00  0.89  0.00  0.00  0.00  0.00  0.00
  WS02003069WS02003072    1.00   0.00  0.00  0.00  0.99  0.01  0.00  0.00  0.00  0.00
  WS02003072WS02003073    1.00   0.00  0.00  0.00  0.00  0.00  0.00  1.00  0.00  0.00
  WS02004138WS02004139    1.00   0.00  0.00  0.00  0.99  0.01  0.00  0.00  1.00  0.00
  WS02004139WS02001211    1.00   0.00  0.00  0.00  1.00  0.00  0.00  0.00  0.00  0.00
  WS02004401WS02004402    1.00   0.02  0.00  0.00  0.98  0.00  0.00  0.00  0.00  0.00
  WS02004402WS02004403    1.00   0.02  0.00  0.00  0.98  0.00  0.00  0.00  0.00  0.00
  WS02004403WS02004404    1.00   0.00  0.03  0.00  0.97  0.00  0.00  0.00  0.00  0.00
  WS02004404WS02004405    1.00   0.00  0.00  0.00  1.00  0.00  0.00  0.00  0.01  0.00
  WS02004405WS02004406    1.00   0.00  0.00  0.00  1.00  0.00  0.00  0.00  0.00  0.00
  WS02004406WS02004407    1.00   0.00  0.05  0.00  0.95  0.00  0.00  0.00  0.00  0.00
  WS02004407WS02004409    1.00   0.05  0.00  0.00  0.94  0.02  0.00  0.00  0.94  0.00
  WS02004409WS02004410    1.00   0.05  0.00  0.00  0.95  0.00  0.00  0.00  0.02  0.00
  WS02004410WS02004411    1.00   0.05  0.00  0.00  0.95  0.00  0.00  0.00  0.00  0.00
  WS02004411WS02004412    1.00   0.05  0.00  0.00  0.95  0.00  0.00  0.00  0.00  0.00
  WS02004412WS02004413    1.00   0.05  0.00  0.00  0.94  0.00  0.00  0.00  0.01  0.00
  WS02004413WS02003067    1.00   0.06  0.04  0.00  0.00  0.00  0.90  0.00  0.00  0.00
  WS02006109WS02006110    1.00   0.00  0.01  0.00  0.98  0.00  0.01  0.00  0.00  0.00
  WS02006110WS02006113    1.00   0.01  0.01  0.00  0.98  0.00  0.00  0.00  0.00  0.00
  WS02006111WS02006112    1.00   0.02  0.00  0.00  0.98  0.00  0.00  0.00  0.98  0.00
  WS02006112WS02006115    1.00   0.02  0.00  0.00  0.97  0.00  0.00  0.00  0.00  0.00
  WS02006113WS02006111    1.00   0.02  0.00  0.00  0.00  0.98  0.00  0.00  0.22  0.00
  WS02006115WS02006116    1.00   0.02  0.00  0.00  0.97  0.00  0.00  0.01  0.00  0.00
  WS02006116WS02004401    1.00   0.02  0.00  0.00  0.98  0.00  0.00  0.00  0.00  0.00
  WS02006228WS02006109    1.00   0.00  0.00  0.00  1.00  0.00  0.00  0.00  0.01  0.00
  WS02006229WS02006228    1.00   0.00  0.00  0.00  0.99  0.00  0.00  0.01  0.00  0.00
  WS02006230WS02006229    1.00   0.00  0.00  0.00  0.99  0.00  0.00  0.01  0.00  0.00
  WS02006231WS02006230    1.00   0.00  0.00  0.00  0.21  0.00  0.79  0.00  0.00  0.00
  WS02006232WS02006231    1.00   0.00  0.00  0.00  0.98  0.00  0.02  0.00  0.00  0.00
  WS02006234WS02006232    1.00   0.00  0.00  0.00  1.00  0.00  0.00  0.00  0.09  0.00
  WS02006235WS02006234    1.00   0.00  0.00  0.00  0.84  0.00  0.16  0.00  0.00  0.00
  WS02006238WS02006235    1.00   0.00  0.00  0.00  1.00  0.00  0.00  0.00  0.00  0.00
  WS02006239WS02006238    1.00   0.00  0.00  0.00  1.00  0.00  0.00  0.00  0.26  0.00
  WS02006240WS02006239    1.00   0.00  0.00  0.00  0.65  0.00  0.00  0.35  0.04  0.00
  WS02006242WS02006240    1.00   0.00  0.00  0.00  0.97  0.00  0.02  0.00  0.00  0.00
  WS02006243WS02006242    1.00   0.00  0.00  0.00  0.98  0.00  0.00  0.02  0.48  0.00
  WS02006245WS02006243    1.00   0.00  0.00  0.00  0.76  0.00  0.00  0.23  0.01  0.00
  WS02006247WS02006245    1.00   0.00  0.00  0.00  0.97  0.00  0.00  0.03  0.00  0.00
  WS02006248WS02006247    1.00   0.00  0.00  0.00  0.98  0.00  0.00  0.02  0.32  0.00
  WS02006249WS02006248    1.00   0.00  0.00  0.00  0.51  0.00  0.49  0.00  0.00  0.00
  WS02006251WS02006249    1.00   0.00  0.00  0.00  0.99  0.01  0.00  0.00  0.51  0.00
  WS02006252WS02006251    1.00   0.00  0.60  0.00  0.00  0.00  0.40  0.00  0.00  0.00
  WS02006256WS02006235    1.00   0.00  0.00  0.00  1.00  0.00  0.00  0.00  0.00  0.00
  WSF200WS02003060        1.00   0.00  0.02  0.00  0.98  0.00  0.00  0.00  0.70  0.00
  YS02001580YS02001583    1.00   0.21  0.57  0.00  0.22  0.00  0.00  0.00  0.66  0.00
  YS02001583YS02001586    1.00   0.48  0.25  0.00  0.27  0.00  0.00  0.00  0.66  0.00
  YS02001586YS02001590    1.00   0.13  0.00  0.00  0.40  0.04  0.00  0.44  0.30  0.00
  YS02001590YS02001593    1.00   0.13  0.01  0.00  0.17  0.00  0.70  0.00  0.00  0.00
  YS02001593YS02001596    1.00   0.13  0.00  0.00  0.68  0.01  0.00  0.18  0.50  0.00
  YS02001596YS02001600    1.00   0.13  0.00  0.00  0.82  0.00  0.00  0.04  0.02  0.00
  YS02001600YS02001601    1.00   0.13  0.01  0.00  0.86  0.00  0.00  0.00  0.03  0.00
  YS02001601YS02001602    1.00   0.13  0.01  0.00  0.87  0.00  0.00  0.00  0.00  0.00
  YS02001602YS02001605    1.00   0.13  0.00  0.00  0.87  0.00  0.00  0.00  0.00  0.00
  YS02001605YS02001607    1.00   0.13  0.00  0.00  0.87  0.00  0.00  0.00  0.00  0.00
  YS02001607YS02001610    1.00   0.13  0.01  0.00  0.86  0.00  0.00  0.00  0.01  0.00
  YS02001610YS02001613    1.00   0.13  0.00  0.00  0.87  0.00  0.00  0.00  0.00  0.00
  YS02001613YS02001616    1.00   0.13  0.00  0.00  0.87  0.00  0.00  0.00  0.00  0.00
  YS02001616YS02001619    1.00   0.13  0.00  0.00  0.87  0.00  0.00  0.00  0.00  0.00
  YS02001619YS02001622    1.00   0.13  0.00  0.00  0.87  0.00  0.00  0.00  0.00  0.00
  YS02001622YS02001625    1.00   0.13  0.00  0.00  0.87  0.00  0.00  0.00  0.03  0.00
  YS02001625YS02001629    1.00   0.13  0.04  0.00  0.80  0.00  0.03  0.00  0.00  0.00
  YS02001629YS02163301    1.00   0.15  0.01  0.00  0.84  0.00  0.00  0.00  0.00  0.00
  YS02001633YS02163601    1.00   0.00  0.01  0.00  0.99  0.00  0.00  0.00  0.14  0.00
  YS02001641YS02001644    1.00   0.00  0.01  0.00  0.99  0.00  0.00  0.00  0.00  0.00
  YS02001644YS02001647    1.00   0.00  0.16  0.00  0.84  0.00  0.00  0.00  0.00  0.00
  YS02001647YS02001649    1.00   0.00  0.16  0.00  0.83  0.01  0.00  0.00  0.01  0.00
  YS02001649YS02001757    1.00   0.00  0.00  0.00  0.98  0.02  0.00  0.00  0.17  0.00
  YS02001652YS02001649    1.00   0.00  0.00  0.00  0.97  0.03  0.00  0.00  0.15  0.00
  YS02001655YS02001652    1.00   0.00  0.00  0.00  0.80  0.01  0.00  0.20  0.01  0.00
  YS02001658YS02001655    1.00   0.00  0.14  0.00  0.78  0.08  0.00  0.00  0.01  0.00
  YS02001661YS02001658    1.00   0.14  0.00  0.00  0.78  0.08  0.00  0.00  0.05  0.00
  YS02001664YS02001661    1.00   0.13  0.00  0.00  0.83  0.05  0.00  0.00  0.83  0.00
  YS02001745YS02001748    1.00   0.00  0.00  0.00  0.78  0.00  0.00  0.22  0.08  0.00
  YS02001748YS02001751    1.00   0.00  0.00  0.00  0.91  0.09  0.00  0.00  0.12  0.00
  YS02001751YS02001754    1.00   0.00  0.00  0.00  0.79  0.00  0.00  0.21  0.00  0.00
  YS02001754YS02001757    1.00   0.00  0.00  0.00  1.00  0.00  0.00  0.00  0.20  0.00
  YS02001757CaochengTiaoxuchi    1.00   0.00  0.00  0.00  0.98  0.02  0.00  0.00  0.19  0.00
  YS02001759YS02001757    1.00   0.00  0.00  0.00  0.99  0.01  0.00  0.00  0.06  0.00
  YS02001762YS02001759    1.00   0.00  0.00  0.00  1.00  0.00  0.00  0.00  0.03  0.00
  YS02001765YS02001762    1.00   0.00  0.00  0.00  1.00  0.00  0.00  0.00  0.13  0.00
  YS02001767YS02001765    1.00   0.00  0.00  0.00  1.00  0.00  0.00  0.00  0.00  0.00
  YS02001770YS02001767    1.00   0.00  0.00  0.00  1.00  0.00  0.00  0.00  0.00  0.00
  YS02001774YS02001770    1.00   0.00  0.13  0.00  0.87  0.00  0.00  0.00  0.02  0.00
  YS02001779YS02001774    1.00   0.00  0.00  0.00  1.00  0.00  0.00  0.00  0.16  0.00
  YS02001783YS02001784    1.00   0.00  0.17  0.00  0.83  0.00  0.00  0.00  0.00  0.00
  YS02001784YS02001785    1.00   0.00  0.00  0.00  1.00  0.00  0.00  0.00  0.16  0.00
  YS02001786YS02001788    1.00   0.00  0.00  0.00  0.96  0.04  0.00  0.00  0.00  0.00
  YS02001788YS02001790    1.00   0.00  0.00  0.00  0.96  0.04  0.00  0.00  0.18  0.00
  YS02001790YS02001791    1.00   0.00  0.00  0.00  0.80  0.20  0.00  0.00  0.03  0.00
  YS02001791YS02001793    1.00   0.00  0.00  0.00  0.78  0.21  0.00  0.00  0.00  0.00
  YS02001793JiankangQianchi    1.00   0.00  0.00  0.00  0.92  0.08  0.00  0.00  0.18  0.00
  YS02001882YS02001884    1.00   0.15  0.01  0.00  0.85  0.00  0.00  0.00  0.00  0.00
  YS02001884YS02001887    1.00   0.06  0.05  0.00  0.89  0.00  0.00  0.00  0.00  0.00
  YS02001887YS02001890    1.00   0.00  0.00  0.00  0.97  0.00  0.03  0.00  0.00  0.00
  YS02001890YS02001895    1.00   0.00  0.15  0.00  0.84  0.00  0.00  0.00  0.00  0.00
  YS02001895YS02001898    1.00   0.16  0.00  0.00  0.83  0.00  0.02  0.00  0.00  0.00
  YS02001898YS02001901    1.00   0.16  0.00  0.00  0.84  0.00  0.00  0.00  0.01  0.00
  YS02001901YS02001904    1.00   0.16  0.00  0.00  0.84  0.00  0.00  0.00  0.00  0.00
  YS02001904YS02001907    1.00   0.00  0.16  0.00  0.84  0.00  0.00  0.00  0.00  0.00
  YS02001907YS02006553    1.00   0.00  0.02  0.00  0.98  0.00  0.00  0.00  0.00  0.00
  YS02001910YS02001907    1.00   0.00  0.00  0.00  0.97  0.00  0.00  0.03  0.12  0.00
  YS02001915YS02001910    1.00   0.00  0.00  0.00  0.97  0.03  0.00  0.00  0.13  0.00
  YS02001918YS02001915    1.00   0.00  0.01  0.00  0.98  0.02  0.00  0.00  0.75  0.00
  YS02001920YS02001918    1.00   0.00  0.01  0.00  0.99  0.00  0.00  0.00  0.00  0.00
  YS02001923YS02001920    1.00   0.00  0.00  0.00  1.00  0.00  0.00  0.00  0.92  0.00
  YS02001926YS02001923    1.00   0.00  0.07  0.00  0.07  0.00  0.86  0.00  0.00  0.00
  YS02001929YS02001926    1.00   0.00  0.13  0.00  0.87  0.00  0.00  0.00  0.82  0.00
  YS02006553YS02006556    1.00   0.01  0.00  0.00  0.99  0.00  0.00  0.00  0.03  0.00
  YS02006556YS02006558    1.00   0.00  0.00  0.00  1.00  0.00  0.00  0.00  0.00  0.00
  YS02006558YS02006561    1.00   0.17  0.00  0.00  0.08  0.75  0.00  0.00  0.18  0.00
  YS02006561YS02001783    1.00   0.17  0.00  0.00  0.79  0.04  0.00  0.00  0.72  0.00
  YS02163301YS02001633    1.00   0.00  0.15  0.00  0.85  0.00  0.00  0.00  0.00  0.00
  YS02163601YS02164001    1.00   0.00  0.08  0.00  0.92  0.00  0.00  0.00  0.00  0.00
  YS02164001YS02001641    1.00   0.01  0.07  0.00  0.92  0.00  0.00  0.00  0.05  0.00
  
  
  *************************
  Conduit Surcharge Summary
  *************************
  
  ----------------------------------------------------------------------------
                                                           Hours        Hours 
                         --------- Hours Full --------   Above Full   Capacity
  Conduit                Both Ends  Upstream  Dnstream   Normal Flow   Limited
  ----------------------------------------------------------------------------
  WS02003072WS02003073        0.01      0.01      0.01      4.24         0.01
  WS02004404WS02004405        0.01      0.01      0.01      3.61         0.01
  WS02006109WS02006110        0.01      0.01      1.56      0.01         0.01
  WS02006110WS02006113        0.01      0.01      1.50      0.01         0.01
  WS02006111WS02006112        0.01      0.01      1.73      0.01         0.01
  WS02006228WS02006109        1.46      1.56      1.46      2.34         1.46
  WS02006229WS02006228        1.44      1.47      1.44      1.86         1.43
  WS02006230WS02006229        1.66      1.72      1.66      4.41         1.66
  WS02006231WS02006230        0.01      0.01      0.01      3.88         0.01
  WS02006232WS02006231        0.01      0.01      1.57      0.01         0.01
  WS02006234WS02006232        1.39      1.39      1.57      0.01         0.01
  WS02006235WS02006234        0.01      0.01      1.47      3.47         0.01
  WS02006238WS02006235        1.48      1.48      1.59      0.01         0.01
  WS02006239WS02006238        1.51      1.57      1.51      2.00         1.51
  WS02006240WS02006239        1.48      1.50      1.48      2.04         1.48
  WS02006242WS02006240        1.48      1.48      1.68      2.36         0.01
  WS02006243WS02006242        1.52      1.52      1.63      0.01         0.01
  WS02006245WS02006243        1.51      1.52      1.51      2.26         1.50
  WS02006247WS02006245        1.51      1.56      1.51      2.95         1.51
  WS02006248WS02006247        1.51      1.51      1.54      0.01         0.01
  WS02006249WS02006248        1.50      1.50      1.53      2.84         0.01
  WS02006251WS02006249        1.53      1.54      1.53      2.50         1.53
  WS02006252WS02006251        2.59      2.59      2.60      2.60         0.01
  WS02006256WS02006235        3.69      3.69      5.85      0.02         0.01
  YS02001580YS02001583        0.63      0.63      0.68      0.01         0.01
  YS02001583YS02001586        0.64      0.64      0.90      0.01         0.01
  YS02001586YS02001590        0.91      0.91      1.02      0.01         0.01
  YS02001590YS02001593        1.03      1.03      1.05      0.98         0.01
  YS02001593YS02001596        1.04      1.04      1.29      0.01         0.01
  YS02001596YS02001600        1.40      1.40      1.65      0.01         0.01
  YS02001600YS02001601        3.10      3.10      6.29      0.01         0.01
  YS02001601YS02001602        6.01      6.01      6.46      1.16         0.01
  YS02001602YS02001605        5.98      5.98      6.01      2.20         0.54
  YS02001605YS02001607        5.95      5.98      6.32      1.52         1.43
  YS02001607YS02001610        1.37      1.37      1.53      0.01         0.01
  YS02001610YS02001613        1.39      1.39      1.53      0.01         0.01
  YS02001613YS02001616        1.31      1.31      1.39      0.01         0.01
  YS02001616YS02001619        1.30      1.30      1.31      0.01         0.01
  YS02001619YS02001622        1.30      1.30      1.31      0.69         0.65
  YS02001622YS02001625        1.31      1.31      4.96      0.01         0.01
  YS02001625YS02001629        1.28      1.28      4.96      0.01         0.01
  YS02001629YS02163301        5.39      5.39      5.79      0.04         0.04
  YS02001633YS02163601        5.98      5.98      6.32      0.07         0.08
  YS02001641YS02001644        6.28      6.29      6.28      1.52         1.50
  YS02001644YS02001647        4.86      4.86      6.28      0.04         0.01
  YS02001647YS02001649        4.86      4.86      6.24      0.01         0.01
  YS02001649YS02001757        6.23      6.24      6.23      0.07         0.03
  YS02001652YS02001649        4.90      4.90      6.24      0.01         0.01
  YS02001655YS02001652        1.24      1.24      4.78      0.01         0.01
  YS02001658YS02001655        0.28      0.28      1.24      0.01         0.01
  YS02001661YS02001658        0.02      0.02      0.28      0.01         0.01
  YS02001664YS02001661        0.01      0.01      0.07      0.01         0.01
  YS02001745YS02001748        0.01      0.01      0.15      0.01         0.01
  YS02001748YS02001751        0.26      0.26      1.07      0.01         0.01
  YS02001751YS02001754        1.07      1.07      3.96      0.01         0.01
  YS02001754YS02001757        4.84      4.84      6.23      0.01         0.01
  YS02001757CaochengTiaoxuchi        6.19      6.23      6.19      0.30         0.23
  YS02001759YS02001757        6.23      6.23      6.23      0.01         0.03
  YS02001762YS02001759        6.23      6.23      6.23      0.01         0.02
  YS02001765YS02001762        6.17      6.17      6.23      0.01         0.01
  YS02001767YS02001765        5.84      5.84      6.17      0.01         0.02
  YS02001770YS02001767        5.80      5.80      5.84      0.52         0.63
  YS02001774YS02001770        5.67      5.67      6.22      0.01         0.01
  YS02001779YS02001774        3.64      3.64      6.22      0.01         0.01
  YS02001783YS02001784        0.69      0.70      0.70      0.66         0.61
  YS02001784YS02001785        0.69      0.70      0.69      0.91         0.68
  YS02001786YS02001788        0.68      0.69      0.68      0.80         0.68
  YS02001788YS02001790        0.68      0.68      6.25      0.01         0.01
  YS02001790YS02001791        6.25      6.25      6.25      0.41         0.41
  YS02001791YS02001793        6.25      6.25      6.27      0.01         0.01
  YS02001793JiankangQianchi        6.27      6.27      6.41      0.01         0.01
  YS02001882YS02001884        0.53      0.53      0.54      0.01         0.01
  YS02001884YS02001887        0.56      0.56      0.58      0.01         0.01
  YS02001887YS02001890        0.59      0.59      0.60      0.11         0.01
  YS02001890YS02001895        0.51      0.51      0.62      0.01         0.01
  YS02001895YS02001898        0.51      0.51      0.51      0.01         0.01
  YS02001898YS02001901        0.52      0.52      0.56      0.01         0.01
  YS02001901YS02001904        0.55      0.55      0.56      0.01         0.01
  YS02001904YS02001907        0.55      0.55      0.79      0.01         0.01
  YS02001907YS02006553        0.93      0.93      1.00      0.01         0.01
  YS02001910YS02001907        0.61      0.61      0.77      0.01         0.01
  YS02001915YS02001910        0.52      0.52      0.61      0.01         0.01
  YS02001918YS02001915        0.43      0.43      0.52      0.01         0.01
  YS02001920YS02001918        0.43      0.43      0.45      0.01         0.01
  YS02001923YS02001920        0.37      0.37      0.45      0.01         0.01
  YS02001926YS02001923        0.05      0.05      0.09      0.01         0.01
  YS02001929YS02001926        0.01      0.01      0.09      0.01         0.01
  YS02006553YS02006556        0.70      0.70      0.79      0.01         0.01
  YS02006556YS02006558        0.73      0.73      0.80      0.01         0.01
  YS02006558YS02006561        0.55      0.69      0.55      0.87         0.55
  YS02006561YS02001783        0.47      0.47      0.70      0.01         0.01
  YS02163301YS02001633        5.79      5.79      6.24      0.01         0.01
  YS02163601YS02164001        6.13      6.13      6.32      0.06         0.01
  YS02164001YS02001641        6.13      6.13      6.29      0.43         0.38
  
  
  ***************
  Pumping Summary
  ***************
  
  ---------------------------------------------------------------------------------------------------------
                                                  Min       Avg       Max     Total     Power    % Time Off
                        Percent   Number of      Flow      Flow      Flow    Volume     Usage    Pump Curve
  Pump                 Utilized   Start-Ups       LPS       LPS       LPS  10^6 ltr     Kw-hr    Low   High
  ---------------------------------------------------------------------------------------------------------
  CC-R1                    2.10           2      0.00    683.00    683.00     0.413      6.92    0.0  100.0
  CC-R2                    1.06           1      0.00    683.00    683.00     0.208      3.51    0.0  100.0
  CC-S1                   36.59          14      0.00    200.00    200.00     2.107      7.80    0.0   72.4
  CC-S2                   33.46          11      0.00    200.00    200.00     1.927      7.52    0.0   69.9
  JK-R1                    2.02           3      0.00    128.74   1000.00     0.107      0.54    0.0    0.0
  JK-R2                    0.97           2      0.00    347.46   1000.00     0.078      0.47    0.0    0.0
  JK-S                     0.97           2      0.00    104.30    300.00     0.023      0.44    0.0    0.0
  XR-1                   100.00           1      0.00     95.00     95.00     2.736     68.18    0.0    0.0
  XR-2                   100.00           1      0.00     95.00     95.00     2.736     68.18    0.0    0.0
  XR-3                   100.00           1      0.00     95.00     95.00     2.736     68.18    0.0    0.0
  XR-4                   100.00           1      0.00     95.00     95.00     2.736     68.18    0.0    0.0
  

  Analysis begun on:  Wed Nov  5 16:30:17 2025
  Analysis ended on:  Wed Nov  5 16:30:20 2025
  Total elapsed time: 00:00:03