
  EPA STORM WATER MANAGEMENT MODEL - VERSION 5.2 (Build 5.2.4)
  PYSWMM TOOLKIT API - VERSION v1.0 (2023-11-27)
  ------------------------------------------------------------

  WARNING 04: minimum elevation drop used for Conduit WS02004404WS02004405
  WARNING 03: negative offset ignored for Link YS02001904YS02001907
  
  ****************
  Analysis Options
  ****************
  Flow Units ............... LPS
  Process Models:
    Rainfall/Runoff ........ YES
    RDII ................... NO
    Snowmelt ............... NO
    Groundwater ............ NO
    Flow Routing ........... YES
    Ponding Allowed ........ NO
    Water Quality .......... NO
  Infiltration Method ...... HORTON
  Flow Routing Method ...... DYNWAVE
  Surcharge Method ......... EXTRAN
  Starting Date ............ 08/28/2015 08:00:00
  Ending Date .............. 08/28/2015 16:00:00
  Antecedent Dry Days ...... 8.0
  Report Time Step ......... 00:01:00
  Wet Time Step ............ 00:01:00
  Dry Time Step ............ 00:01:00
  Routing Time Step ........ 30.00 sec
  Variable Time Step ....... YES
  Maximum Trials ........... 8
  Number of Threads ........ 4
  Head Tolerance ........... 0.001500 m
  
  
  **************************        Volume         Depth
  Runoff Quantity Continuity     hectare-m            mm
  **************************     ---------       -------
  Initial LID Storage ......         0.049         1.488
  Total Precipitation ......         1.483        44.710
  Evaporation Loss .........         0.000         0.000
  Infiltration Loss ........         0.073         2.212
  Surface Runoff ...........         1.072        32.309
  Final Storage ............         0.388        11.685
  Continuity Error (%) .....        -0.017
  
  
  **************************        Volume        Volume
  Flow Routing Continuity        hectare-m      10^6 ltr
  **************************     ---------     ---------
  Dry Weather Inflow .......         0.602         6.020
  Wet Weather Inflow .......         1.072        10.719
  Groundwater Inflow .......         0.000         0.000
  RDII Inflow ..............         0.000         0.000
  External Inflow ..........         0.105         1.045
  External Outflow .........         1.512        15.125
  Flooding Loss ............         0.325         3.251
  Evaporation Loss .........         0.000         0.000
  Exfiltration Loss ........         0.000         0.000
  Initial Stored Volume ....         0.303         3.031
  Final Stored Volume ......         0.705         7.054
  Continuity Error (%) .....       -22.174
  
  
  *************************
  Highest Continuity Errors
  *************************
  Node YS02001774 (33.26%)
  Node YS02001583 (-7.83%)
  Node WS02006256 (-5.84%)
  Node YS02001884 (4.87%)
  Node YS02001754 (3.75%)
  
  
  ***************************
  Time-Step Critical Elements
  ***************************
  Link WS02001212WS02001213 (23.81%)
  Link WS02006238WS02006235 (23.11%)
  Link WS02006252WS02006251 (18.33%)
  Link WS02006235WS02006234 (11.31%)
  Link YS02006556YS02006558 (3.93%)
  
  
  ********************************
  Highest Flow Instability Indexes
  ********************************
  Link WS02006113WS02006111 (44)
  Link WS02006111WS02006112 (23)
  Link YS02001762YS02001759 (23)
  Link YS02001765YS02001762 (22)
  Link YS02164001YS02001641 (21)
  
  
  *********************************
  Most Frequent Nonconverging Nodes
  *********************************
  Node CC-1 (6.95%)
  Node CC-2 (6.95%)
  Node JK-1 (6.95%)
  Node JK-2 (6.95%)
  Node WSC (6.95%)
  
  
  *************************
  Routing Time Step Summary
  *************************
  Minimum Time Step           :     0.01 sec
  Average Time Step           :     2.98 sec
  Maximum Time Step           :     6.46 sec
  % of Time in Steady State   :     0.00
  Average Iterations per Step :     2.86
  % of Steps Not Converging   :     6.95
  Time Step Frequencies       :
     30.000 - 13.228 sec      :     0.00 %
     13.228 -  5.833 sec      :    23.07 %
      5.833 -  2.572 sec      :    28.27 %
      2.572 -  1.134 sec      :    22.61 %
      1.134 -  0.500 sec      :    26.04 %
  
  
  ***************************
  Subcatchment Runoff Summary
  ***************************
  
  ------------------------------------------------------------------------------------------------------------------------------
                            Total      Total      Total      Total     Imperv       Perv      Total       Total     Peak  Runoff
                           Precip      Runon       Evap      Infil     Runoff     Runoff     Runoff      Runoff   Runoff   Coeff
  Subcatchment                 mm         mm         mm         mm         mm         mm         mm    10^6 ltr      LPS
  ------------------------------------------------------------------------------------------------------------------------------
  sub60                     44.71       0.00       0.00       1.32      29.44       2.82      32.26        0.42   300.43   0.722
  sub61                     44.71       0.00       0.00       2.02      29.41       4.19      33.60        0.62   436.75   0.752
  sub62                     44.71       0.00       0.00       0.90      31.35       1.92      33.27        0.91   595.55   0.744
  sub63                     44.71       0.00       0.00       3.72      25.19       6.90      32.09        0.73   486.20   0.718
  sub64                     44.71       0.00       0.00       1.78      28.68       3.44      32.12        0.77   483.68   0.718
  sub65                     44.71       0.00       0.00       1.64      30.95       3.14      34.09        0.94   563.87   0.762
  sub66                     44.71       0.00       0.00       4.34      24.34       5.94      30.29        1.41   715.11   0.677
  sub67                     44.71       0.00       0.00       0.89      32.15       1.99      34.14        0.64   469.62   0.764
  sub68                     44.71       0.00       0.00       1.55      28.39       3.22      31.60        0.87   592.88   0.707
  sub69                     44.71       0.00       0.00       1.40      30.04       3.91      33.95        1.26   731.37   0.759
  sub70                     44.71       0.00       0.00       4.73      24.05       7.72      31.77        0.92   413.57   0.711
  sub71                     44.71       0.00       0.00       0.83      28.47       1.73      30.21        0.79   491.04   0.676
  sub72                     44.71       0.00       0.00       0.79      30.75       1.60      32.35        0.44   251.09   0.724
  

  ***********************
  LID Performance Summary
  ***********************

  --------------------------------------------------------------------------------------------------------------------
                                         Total      Evap     Infil   Surface    Drain    Initial     Final  Continuity
                                        Inflow      Loss      Loss   Outflow   Outflow   Storage   Storage       Error
  Subcatchment      LID Control             mm        mm        mm        mm        mm        mm        mm           %
  --------------------------------------------------------------------------------------------------------------------
  sub60             GreenRoof            44.71      0.00      0.00      0.00      0.00      7.05     51.76       -0.00
  sub61             GreenRoof            44.71      0.00      0.00      0.00      0.00      7.05     51.76       -0.00
  sub62             GreenRoof            44.71      0.00      0.00      0.00      0.00      7.05     51.76       -0.00
  sub63             GreenRoof            44.71      0.00      0.00      0.00      0.00      7.05     51.76       -0.00
  sub64             GreenRoof            44.71      0.00      0.00      0.00      0.00      7.05     51.76       -0.00
  sub65             GreenRoof            44.71      0.00      0.00      0.00      0.00      7.05     51.76       -0.00
  sub66             GreenRoof            44.71      0.00      0.00      0.00      0.00      7.05     51.76       -0.00
  sub67             GreenRoof            44.71      0.00      0.00      0.00      0.00      7.05     51.76       -0.00
  sub68             GreenRoof            44.71      0.00      0.00      0.00      0.00      7.05     51.76       -0.00
  sub69             GreenRoof            44.71      0.00      0.00      0.00      0.00      7.05     51.76       -0.00
  sub70             GreenRoof            44.71      0.00      0.00      0.00      0.00      7.05     51.76       -0.00
  sub71             GreenRoof            44.71      0.00      0.00      0.00      0.00      7.05     51.76       -0.00
  sub72             GreenRoof            44.71      0.00      0.00      0.00      0.00      7.05     51.76       -0.00
  
  ******************
  Node Depth Summary
  ******************
  
  ---------------------------------------------------------------------------------
                                 Average  Maximum  Maximum  Time of Max    Reported
                                   Depth    Depth      HGL   Occurrence   Max Depth
  Node                 Type       Meters   Meters   Meters  days hr:min      Meters
  ---------------------------------------------------------------------------------
  WS02001211           JUNCTION     0.76     0.78     5.62     0  02:41        0.78
  WS02001212           JUNCTION     0.46     0.49     5.55     0  02:44        0.49
  WS02001213           JUNCTION     0.68     0.73     5.49     0  02:43        0.73
  WS02003059           JUNCTION     0.73     0.78     5.47     0  03:22        0.78
  WS02003060           JUNCTION     0.38     0.47     5.41     0  02:42        0.47
  WS02003066           JUNCTION     0.16     0.27     5.82     0  03:21        0.27
  WS02003067           JUNCTION     0.43     0.65     5.97     0  03:21        0.65
  WS02003069           JUNCTION     0.42     0.54     5.12     0  02:40        0.54
  WS02003072           JUNCTION     0.49     0.60     4.97     0  02:40        0.60
  WS02003073           JUNCTION     0.29     0.37     4.43     0  02:41        0.37
  WS02004138           JUNCTION     0.19     0.20     7.45     0  00:00        0.19
  WS02004139           JUNCTION     0.71     0.73     5.64     0  02:42        0.73
  WS02004401           JUNCTION     0.51     0.75     6.75     0  03:00        0.75
  WS02004402           JUNCTION     0.55     0.78     6.74     0  03:22        0.78
  WS02004403           JUNCTION     0.57     0.80     6.73     0  03:00        0.80
  WS02004404           JUNCTION     0.65     0.88     6.73     0  03:00        0.88
  WS02004405           JUNCTION     0.65     0.88     6.73     0  03:00        0.87
  WS02004406           JUNCTION     0.66     0.88     6.71     0  03:01        0.88
  WS02004407           JUNCTION     0.14     0.26     6.57     0  03:01        0.26
  WS02004409           JUNCTION     0.30     0.58     6.35     0  03:01        0.58
  WS02004410           JUNCTION     0.33     0.59     6.31     0  03:20        0.59
  WS02004411           JUNCTION     0.35     0.61     6.29     0  03:20        0.61
  WS02004412           JUNCTION     0.38     0.62     6.26     0  02:38        0.62
  WS02004413           JUNCTION     0.54     0.79     6.26     0  03:21        0.79
  WS02006109           JUNCTION     0.58     0.84     7.45     0  02:04        0.83
  WS02006110           JUNCTION     0.59     0.82     7.41     0  03:19        0.82
  WS02006111           JUNCTION     0.15     0.25     6.96     0  02:38        0.25
  WS02006112           JUNCTION     0.67     0.93     6.82     0  02:38        0.93
  WS02006113           JUNCTION     0.22     0.39     7.29     0  02:33        0.39
  WS02006115           JUNCTION     0.40     0.65     6.78     0  02:38        0.65
  WS02006116           JUNCTION     0.48     0.73     6.77     0  03:27        0.73
  WS02006228           JUNCTION     0.56     0.84     7.49     0  02:31        0.84
  WS02006229           JUNCTION     0.53     0.93     7.63     0  02:02        0.82
  WS02006230           JUNCTION     0.52     0.86     7.60     0  02:31        0.86
  WS02006231           JUNCTION     0.32     0.60     7.72     0  02:26        0.60
  WS02006232           JUNCTION     0.44     0.75     7.79     0  02:25        0.75
  WS02006234           JUNCTION     0.36     0.71     7.87     0  02:25        0.71
  WS02006235           JUNCTION     0.39     0.76     7.93     0  02:22        0.76
  WS02006238           JUNCTION     0.42     0.81     7.95     0  02:17        0.81
  WS02006239           JUNCTION     0.39     0.81     8.02     0  02:13        0.80
  WS02006240           JUNCTION     0.38     0.79     8.08     0  02:09        0.79
  WS02006242           JUNCTION     0.44     0.90     8.17     0  02:10        0.90
  WS02006243           JUNCTION     0.37     0.84     8.26     0  02:14        0.84
  WS02006245           JUNCTION     0.38     0.86     8.34     0  02:24        0.85
  WS02006247           JUNCTION     0.40     0.89     8.39     0  02:13        0.89
  WS02006248           JUNCTION     0.38     0.86     8.44     0  02:15        0.86
  WS02006249           JUNCTION     0.41     0.89     8.49     0  02:29        0.89
  WS02006251           JUNCTION     0.40     0.91     8.58     0  02:27        0.91
  WS02006252           JUNCTION     0.29     1.50     9.74     0  00:00        0.59
  WS02006256           JUNCTION     0.62     2.35     9.28     0  00:00        2.35
  WSF200               JUNCTION     0.12     0.25     5.48     0  03:21        0.25
  YS02001580           JUNCTION     0.05     1.05     9.59     0  02:09        1.05
  YS02001583           JUNCTION     0.08     1.05     9.55     0  02:09        0.96
  YS02001586           JUNCTION     0.13     1.13     9.30     0  02:09        1.13
  YS02001590           JUNCTION     0.21     1.40     9.26     0  02:09        1.37
  YS02001593           JUNCTION     0.15     1.33     9.19     0  02:09        1.30
  YS02001596           JUNCTION     0.22     1.68     9.10     0  02:09        1.66
  YS02001600           JUNCTION     0.44     1.87     9.00     0  02:09        1.87
  YS02001601           JUNCTION     0.69     2.06     8.90     0  02:09        2.06
  YS02001602           JUNCTION     0.61     1.87     8.77     0  02:09        1.87
  YS02001605           JUNCTION     0.59     1.77     8.68     0  02:11        1.77
  YS02001607           JUNCTION     0.59     1.65     8.49     0  02:14        1.64
  YS02001610           JUNCTION     0.63     1.68     8.48     0  02:09        1.68
  YS02001613           JUNCTION     0.59     1.65     8.49     0  02:11        1.65
  YS02001616           JUNCTION     0.53     1.59     8.51     0  02:11        1.59
  YS02001619           JUNCTION     0.51     1.59     8.51     0  02:12        1.59
  YS02001622           JUNCTION     0.52     1.56     8.47     0  02:11        1.56
  YS02001625           JUNCTION     0.78     1.78     8.38     0  02:11        1.78
  YS02001629           JUNCTION     0.80     1.85     8.40     0  02:13        1.85
  YS02001633           JUNCTION     0.88     1.99     8.45     0  02:15        1.97
  YS02001641           JUNCTION     0.87     1.95     8.38     0  02:15        1.84
  YS02001644           JUNCTION     0.86     1.92     8.35     0  02:15        1.80
  YS02001647           JUNCTION     0.68     1.65     8.26     0  02:15        1.53
  YS02001649           JUNCTION     0.84     1.80     8.19     0  02:15        1.65
  YS02001652           JUNCTION     0.66     1.66     8.26     0  02:15        1.46
  YS02001655           JUNCTION     0.47     1.52     8.37     0  02:15        1.23
  YS02001658           JUNCTION     0.25     1.37     8.51     0  02:15        0.95
  YS02001661           JUNCTION     0.12     0.73     8.14     0  02:15        0.73
  YS02001664           JUNCTION     0.04     0.27     8.19     0  02:14        0.26
  YS02001745           JUNCTION     0.04     0.43     7.94     0  02:14        0.36
  YS02001748           JUNCTION     0.29     0.87     7.95     0  02:15        0.84
  YS02001751           JUNCTION     0.43     1.17     8.05     0  02:15        0.99
  YS02001754           JUNCTION     0.63     1.36     7.97     0  02:16        1.27
  YS02001757           JUNCTION     0.92     1.71     7.97     0  02:15        1.61
  YS02001759           JUNCTION     0.84     1.66     8.03     0  02:15        1.55
  YS02001762           JUNCTION     0.81     1.65     8.05     0  02:15        1.52
  YS02001765           JUNCTION     0.77     1.62     8.07     0  02:14        1.48
  YS02001767           JUNCTION     0.74     1.64     8.13     0  02:13        1.55
  YS02001770           JUNCTION     0.74     1.89     8.39     0  02:13        1.89
  YS02001774           JUNCTION     0.81     2.01     8.43     0  02:13        2.01
  YS02001779           JUNCTION     0.57     1.68     8.37     0  02:12        1.68
  YS02001783           JUNCTION     0.45     2.40     8.54     0  02:08        1.48
  YS02001784           JUNCTION     0.50     2.29     8.36     0  02:08        1.42
  YS02001786           JUNCTION     0.51     1.92     7.95     0  02:08        1.27
  YS02001788           JUNCTION     0.52     2.05     8.03     0  02:08        1.13
  YS02001790           JUNCTION     0.77     1.96     7.60     0  02:07        1.29
  YS02001791           JUNCTION     0.87     2.72     8.19     0  02:07        1.27
  YS02001793           JUNCTION     1.34     2.49     7.32     0  02:07        1.80
  YS02001882           JUNCTION     0.24     1.81     8.52     0  02:12        1.62
  YS02001884           JUNCTION     0.33     1.88     8.49     0  02:12        1.72
  YS02001887           JUNCTION     0.41     1.89     8.42     0  02:12        1.78
  YS02001890           JUNCTION     0.44     1.81     8.32     0  02:12        1.81
  YS02001895           JUNCTION     0.22     1.62     8.37     0  02:12        1.55
  YS02001898           JUNCTION     0.22     1.67     8.41     0  02:12        1.56
  YS02001901           JUNCTION     0.34     1.77     8.38     0  02:12        1.66
  YS02001904           JUNCTION     0.32     1.70     8.33     0  02:12        1.63
  YS02001907           JUNCTION     0.63     1.96     8.25     0  02:12        1.96
  YS02001910           JUNCTION     0.43     2.00     8.51     0  02:13        2.00
  YS02001915           JUNCTION     0.24     1.95     8.67     0  02:13        1.95
  YS02001918           JUNCTION     0.11     1.81     8.88     0  02:13        1.81
  YS02001920           JUNCTION     0.19     2.14     9.15     0  02:13        2.14
  YS02001923           JUNCTION     0.08     2.03     9.29     0  02:12        2.03
  YS02001926           JUNCTION     0.12     1.90     9.35     0  02:12        1.90
  YS02001929           JUNCTION     0.06     1.78     9.47     0  02:12        1.78
  YS02006553           JUNCTION     0.64     2.02     8.31     0  02:12        1.96
  YS02006556           JUNCTION     0.61     2.06     8.37     0  02:12        1.93
  YS02006558           JUNCTION     0.65     2.12     8.39     0  02:12        1.96
  YS02006561           JUNCTION     0.13     1.30     7.96     0  02:12        1.09
  YS02163301           JUNCTION     0.82     1.91     8.42     0  02:15        1.90
  YS02163601           JUNCTION     0.92     2.02     8.42     0  02:15        1.96
  YS02164001           JUNCTION     0.85     1.94     8.40     0  02:15        1.86
  CC-1                 OUTFALL      0.00     0.00     0.00     0  00:00        0.00
  CC-2                 OUTFALL      0.00     0.00     0.00     0  00:00        0.00
  JK-1                 OUTFALL      0.00     0.00     0.00     0  00:00        0.00
  JK-2                 OUTFALL      0.00     0.00     0.00     0  00:00        0.00
  WSC                  OUTFALL      0.29     0.37     1.04     0  02:41        0.37
  CC-storage           STORAGE      1.53     1.98     7.48     0  03:02        1.98
  JK-storage           STORAGE      4.56     5.80     6.60     0  02:07        5.80
  XR-storage           STORAGE      0.24     5.00     3.00     0  00:00        4.91
  
  
  *******************
  Node Inflow Summary
  *******************
  
  -------------------------------------------------------------------------------------------------
                                  Maximum  Maximum                  Lateral       Total        Flow
                                  Lateral    Total  Time of Max      Inflow      Inflow     Balance
                                   Inflow   Inflow   Occurrence      Volume      Volume       Error
  Node                 Type           LPS      LPS  days hr:min    10^6 ltr    10^6 ltr     Percent
  -------------------------------------------------------------------------------------------------
  WS02001211           JUNCTION      7.35   389.13     0  03:41       0.212        11.1       0.354
  WS02001212           JUNCTION      0.00   390.86     0  03:41           0        11.1       0.213
  WS02001213           JUNCTION      0.00   392.61     0  03:40           0        11.1       0.247
  WS02003059           JUNCTION      0.00   395.66     0  03:39           0          11       0.341
  WS02003060           JUNCTION     16.53   816.10     0  03:21       0.476        14.6       0.182
  WS02003066           JUNCTION      0.00   411.91     0  03:21           0        3.16       0.097
  WS02003067           JUNCTION      0.00   411.90     0  03:21           0        3.17       0.216
  WS02003069           JUNCTION      0.32   816.40     0  02:39     0.00922        14.6       0.196
  WS02003072           JUNCTION      0.00   816.39     0  02:40           0        14.6       0.244
  WS02003073           JUNCTION      1.82   818.20     0  02:41      0.0524        14.6       0.275
  WS02004138           JUNCTION      0.00   380.00     0  00:00           0        10.9       0.059
  WS02004139           JUNCTION      0.32   395.52     0  00:00     0.00924        10.9       0.412
  WS02004401           JUNCTION      0.00   412.16     0  03:21           0        3.34       0.473
  WS02004402           JUNCTION      0.00   412.05     0  03:00           0        3.32       0.461
  WS02004403           JUNCTION      0.00   412.07     0  03:00           0        3.31       0.435
  WS02004404           JUNCTION      0.16   412.14     0  03:18     0.00467         3.3       0.342
  WS02004405           JUNCTION      0.04   412.18     0  03:00      0.0011        3.29       0.512
  WS02004406           JUNCTION      0.00   412.21     0  03:00           0        3.27       0.849
  WS02004407           JUNCTION      0.00   412.08     0  03:01           0        3.24       0.137
  WS02004409           JUNCTION      0.00   412.03     0  03:01           0        3.24       0.302
  WS02004410           JUNCTION      0.00   412.01     0  03:19           0        3.23       0.365
  WS02004411           JUNCTION      0.00   411.98     0  03:20           0        3.22       0.392
  WS02004412           JUNCTION      0.00   411.97     0  03:20           0        3.21       0.447
  WS02004413           JUNCTION      0.00   411.98     0  03:20           0        3.19       0.707
  WS02006109           JUNCTION      1.23   411.72     0  03:18      0.0354        3.42       0.338
  WS02006110           JUNCTION      0.00   411.73     0  03:18           0        3.41       0.366
  WS02006111           JUNCTION      0.00   423.75     0  02:12           0        3.39       0.079
  WS02006112           JUNCTION      0.00   414.02     0  02:38           0        3.39       0.709
  WS02006113           JUNCTION      0.00   411.93     0  02:38           0        3.39       0.154
  WS02006115           JUNCTION      0.00   412.29     0  02:38           0        3.36       0.385
  WS02006116           JUNCTION      0.00   412.16     0  03:21           0        3.35       0.313
  WS02006228           JUNCTION      0.00   410.48     0  03:18           0        3.39       0.173
  WS02006229           JUNCTION      0.00   410.47     0  03:18           0         3.4       0.249
  WS02006230           JUNCTION     10.28   410.55     0  02:26       0.296        3.41       0.241
  WS02006231           JUNCTION      0.00   400.31     0  02:26           0        3.11       0.081
  WS02006232           JUNCTION      0.00   400.32     0  02:25           0        3.13       0.542
  WS02006234           JUNCTION      0.00   401.36     0  02:23           0        3.13      -0.053
  WS02006235           JUNCTION      0.00   402.32     0  02:16           0        3.15       0.454
  WS02006238           JUNCTION      0.00   401.77     0  02:16           0        3.13      -0.309
  WS02006239           JUNCTION      0.00   401.17     0  02:10           0        3.12      -0.045
  WS02006240           JUNCTION      0.00   400.67     0  02:18           0        3.12       0.218
  WS02006242           JUNCTION      0.00   400.97     0  02:14           0        3.13       0.460
  WS02006243           JUNCTION      0.00   401.19     0  02:08           0        3.14       0.264
  WS02006245           JUNCTION      0.00   403.18     0  02:20           0        3.17       0.906
  WS02006247           JUNCTION      0.00   400.92     0  02:07           0        3.18       0.314
  WS02006248           JUNCTION      0.00   401.00     0  02:25           0        3.19       0.283
  WS02006249           JUNCTION      0.00   474.07     0  01:51           0        3.22       1.008
  WS02006251           JUNCTION      0.08   403.95     0  07:56     0.00222        3.23       0.258
  WS02006252           JUNCTION      0.00   400.00     0  00:00           0        3.22      -0.084
  WS02006256           JUNCTION      0.00   300.00     0  00:00           0      0.0243      -5.516
  WSF200               JUNCTION      0.00   411.91     0  03:21           0        3.16       0.082
  YS02001580           JUNCTION      0.00   108.62     0  02:09           0     0.00404      -2.961
  YS02001583           JUNCTION      0.00   181.66     0  02:09           0      0.0146      -7.264
  YS02001586           JUNCTION    413.57   413.60     0  02:15       0.918        0.93       0.141
  YS02001590           JUNCTION      0.00   317.98     0  02:19           0       0.876      -0.027
  YS02001593           JUNCTION      0.00   318.08     0  02:19           0       0.876       0.012
  YS02001596           JUNCTION      0.00   317.97     0  02:21           0       0.878       0.021
  YS02001600           JUNCTION      0.00   318.05     0  02:21           0       0.882       0.146
  YS02001601           JUNCTION    731.37  1048.66     0  02:14        1.26        2.14       0.322
  YS02001602           JUNCTION      0.00   520.76     0  02:09           0        1.66       0.418
  YS02001605           JUNCTION      0.00   521.07     0  02:09           0        1.61       0.650
  YS02001607           JUNCTION      0.00   520.50     0  02:09           0         1.6       0.809
  YS02001610           JUNCTION      0.00   520.45     0  02:09           0        1.59       0.782
  YS02001613           JUNCTION      0.00   521.76     0  02:09           0        1.48       0.830
  YS02001616           JUNCTION      0.00   523.47     0  02:09           0        1.48       0.657
  YS02001619           JUNCTION    715.11   941.13     0  02:11        1.41        2.88       0.317
  YS02001622           JUNCTION      0.00   938.61     0  02:11           0        2.87       0.477
  YS02001625           JUNCTION      0.00   938.01     0  02:11           0        2.86       1.213
  YS02001629           JUNCTION      0.00   937.11     0  02:11           0        2.67       0.449
  YS02001633           JUNCTION    564.07  1399.80     0  02:11       0.944        3.58       0.808
  YS02001641           JUNCTION      0.00  1389.71     0  02:11           0         3.5       0.493
  YS02001644           JUNCTION    483.72  1815.71     0  02:12       0.773        4.26       0.556
  YS02001647           JUNCTION      0.00  1816.65     0  02:12           0        4.23       0.524
  YS02001649           JUNCTION      0.00  2087.79     0  02:11           0        4.92       0.707
  YS02001652           JUNCTION      0.00   534.47     0  02:16           0       0.739       2.298
  YS02001655           JUNCTION      0.15   535.42     0  02:16     0.00443       0.746       1.518
  YS02001658           JUNCTION      0.00   739.13     0  02:15           0       0.735       0.276
  YS02001661           JUNCTION      0.00   489.76     0  02:14           0       0.729       0.005
  YS02001664           JUNCTION    486.20   486.20     0  02:13       0.729       0.729      -0.009
  YS02001745           JUNCTION    300.44   300.44     0  02:13       0.424       0.424       0.393
  YS02001748           JUNCTION      0.04   399.69     0  02:15      0.0013        0.43       0.300
  YS02001751           JUNCTION      0.01   413.01     0  02:16    0.000317        0.44       2.554
  YS02001754           JUNCTION      0.26   340.28     0  02:16     0.00749       0.443       3.900
  YS02001757           JUNCTION      0.00  3058.28     0  02:15           0        6.68       1.383
  YS02001759           JUNCTION    436.79  1139.62     0  02:13       0.618        1.43       1.542
  YS02001762           JUNCTION      0.00   696.08     0  02:13           0       0.826       2.158
  YS02001765           JUNCTION      0.00   685.23     0  02:13           0       0.848       2.701
  YS02001767           JUNCTION      0.54   673.99     0  02:13      0.0154        0.88       3.708
  YS02001770           JUNCTION    595.70   650.81     0  02:13       0.916       0.941       2.990
  YS02001774           JUNCTION      0.00   290.81     0  02:12           0      0.0681      49.827
  YS02001779           JUNCTION      0.01   267.99     0  02:12    0.000144      0.0259      60.675
  YS02001783           JUNCTION      0.00   970.38     0  02:14           0        2.54       0.260
  YS02001784           JUNCTION      1.06   970.88     0  02:13      0.0305        2.56       0.411
  YS02001786           JUNCTION      0.06   970.78     0  02:14     0.00162        2.55       0.517
  YS02001788           JUNCTION      0.07   971.34     0  02:13     0.00204        2.54       0.532
  YS02001790           JUNCTION      0.15   971.86     0  02:13     0.00446        2.53       0.664
  YS02001791           JUNCTION      0.00   971.90     0  02:13           0        2.52       0.560
  YS02001793           JUNCTION      0.00   972.45     0  02:13           0         2.5       0.631
  YS02001882           JUNCTION      0.00    87.86     0  02:11           0      0.0126       5.152
  YS02001884           JUNCTION      0.00   136.24     0  02:09           0      0.0484       5.121
  YS02001887           JUNCTION    470.07   471.17     0  02:13       0.648       0.682       0.622
  YS02001890           JUNCTION      0.00   471.10     0  02:13           0       0.641       0.767
  YS02001895           JUNCTION      0.00   464.97     0  02:13           0       0.634       0.215
  YS02001898           JUNCTION      0.00   466.65     0  02:13           0       0.633       0.063
  YS02001901           JUNCTION      0.00   468.61     0  02:11           0       0.635       0.499
  YS02001904           JUNCTION      0.00   471.74     0  02:11           0       0.639       0.408
  YS02001907           JUNCTION      0.00  1406.57     0  02:13           0        1.95       0.908
  YS02001910           JUNCTION      0.00   949.88     0  02:13           0        1.32       0.534
  YS02001915           JUNCTION    491.06   949.41     0  02:13       0.791        1.37       0.115
  YS02001918           JUNCTION      0.00   592.62     0  02:11           0       0.611       0.003
  YS02001920           JUNCTION      2.87   470.86     0  02:12      0.0827       0.591       0.158
  YS02001923           JUNCTION      0.04   551.32     0  02:11     0.00109       0.489      -0.271
  YS02001926           JUNCTION      0.05   782.84     0  02:12      0.0015       0.466      -0.037
  YS02001929           JUNCTION    251.09   645.03     0  02:12       0.445        0.45      -0.054
  YS02006553           JUNCTION      0.00   676.09     0  02:23           0        1.69       0.690
  YS02006556           JUNCTION      0.00   677.09     0  02:23           0         1.7       0.464
  YS02006558           JUNCTION    593.76   972.22     0  02:13       0.895        2.57       0.138
  YS02006561           JUNCTION      0.00   970.70     0  02:13           0        2.54      -0.013
  YS02163301           JUNCTION      0.00   935.30     0  02:11           0        2.66       0.773
  YS02163601           JUNCTION      0.11  1397.80     0  02:11     0.00317        3.54       0.771
  YS02164001           JUNCTION      0.00  1395.13     0  02:11           0        3.52       0.464
  CC-1                 OUTFALL       0.00   683.00     0  00:00           0       0.208       0.000
  CC-2                 OUTFALL       0.00   683.00     0  00:00           0       0.208       0.000
  JK-1                 OUTFALL       0.00  1000.00     0  00:00           0      0.0791       0.000
  JK-2                 OUTFALL       0.00  1000.00     0  00:00           0      0.0791       0.000
  WSC                  OUTFALL       0.00   818.19     0  02:41           0        14.6       0.000
  CC-storage           STORAGE       0.00  3061.76     0  02:15           0        8.79       0.351
  JK-storage           STORAGE       0.00   972.67     0  02:13           0        2.64       0.599
  XR-storage           STORAGE     200.00   200.00     0  00:00        5.76        6.36     -41.886
  
  
  **********************
  Node Surcharge Summary
  **********************
  
  Surcharging occurs when water rises above the top of the highest conduit.
  ---------------------------------------------------------------------
                                               Max. Height   Min. Depth
                                   Hours       Above Crown    Below Rim
  Node                 Type      Surcharged         Meters       Meters
  ---------------------------------------------------------------------
  WS02006109           JUNCTION        1.39          0.015        1.805
  WS02006228           JUNCTION        1.38          0.013        2.187
  WS02006229           JUNCTION        1.41          0.134        2.316
  WS02006232           JUNCTION        1.53          0.050        1.430
  WS02006235           JUNCTION        1.41          0.055        1.235
  WS02006238           JUNCTION        1.46          0.088        1.342
  WS02006239           JUNCTION        1.42          0.068        1.222
  WS02006240           JUNCTION        1.43          0.080        1.310
  WS02006242           JUNCTION        1.59          0.175        0.645
  WS02006243           JUNCTION        1.46          0.134        0.636
  WS02006245           JUNCTION        1.47          0.147        0.703
  WS02006247           JUNCTION        1.50          0.182        0.578
  WS02006248           JUNCTION        1.45          0.137        0.243
  WS02006249           JUNCTION        1.49          0.194        0.196
  WS02006252           JUNCTION        2.08          1.100        0.000
  WS02006256           JUNCTION        3.57          2.050        0.000
  YS02001580           JUNCTION        0.29          0.450        0.000
  YS02001583           JUNCTION        0.29          0.414        0.086
  YS02001586           JUNCTION        0.42          0.510        0.000
  YS02001590           JUNCTION        0.48          0.750        0.000
  YS02001593           JUNCTION        0.48          0.708        0.132
  YS02001596           JUNCTION        0.59          0.954        0.116
  YS02001600           JUNCTION        0.75          1.190        0.000
  YS02001601           JUNCTION        1.83          1.440        0.000
  YS02001602           JUNCTION        1.20          1.270        0.000
  YS02001605           JUNCTION        1.16          1.175        0.005
  YS02001607           JUNCTION        0.49          0.645        0.035
  YS02001610           JUNCTION        0.52          0.680        0.000
  YS02001613           JUNCTION        0.48          0.654        0.046
  YS02001616           JUNCTION        0.44          0.594        0.016
  YS02001619           JUNCTION        0.43          0.586        0.024
  YS02001622           JUNCTION        0.43          0.562        0.058
  YS02001625           JUNCTION        0.69          0.780        0.000
  YS02001629           JUNCTION        0.38          0.470        0.000
  YS02001633           JUNCTION        1.07          0.973        0.087
  YS02001641           JUNCTION        4.42          0.948        0.152
  YS02001644           JUNCTION        4.58          0.920        0.000
  YS02001647           JUNCTION        0.37          0.653        0.247
  YS02001649           JUNCTION        5.42          0.799        0.251
  YS02001652           JUNCTION        0.25          0.629        0.501
  YS02001655           JUNCTION        0.10          0.515        0.685
  YS02001658           JUNCTION        0.01          0.367        0.933
  YS02001751           JUNCTION        0.02          0.172        1.028
  YS02001754           JUNCTION        0.11          0.310        0.840
  YS02001757           JUNCTION        5.80          0.710        0.500
  YS02001759           JUNCTION        5.63          0.663        0.547
  YS02001762           JUNCTION        5.31          0.646        0.504
  YS02001765           JUNCTION        3.04          0.620        0.480
  YS02001767           JUNCTION        0.84          0.643        0.387
  YS02001770           JUNCTION        0.28          0.864        0.056
  YS02001774           JUNCTION        4.87          1.012        0.038
  YS02001779           JUNCTION        0.12          0.680        0.000
  YS02001783           JUNCTION        0.45          1.600        0.000
  YS02001784           JUNCTION        0.46          1.490        0.000
  YS02001786           JUNCTION        0.45          1.120        0.310
  YS02001788           JUNCTION        0.45          1.249        0.231
  YS02001790           JUNCTION        5.88          1.157        0.000
  YS02001791           JUNCTION        5.88          1.920        0.000
  YS02001793           JUNCTION        5.91          1.487        1.113
  YS02001882           JUNCTION        0.28          0.806        0.024
  YS02001884           JUNCTION        0.29          0.816        0.054
  YS02001887           JUNCTION        0.33          0.836        0.114
  YS02001890           JUNCTION        0.34          0.760        0.000
  YS02001895           JUNCTION        0.28          0.625        0.125
  YS02001898           JUNCTION        0.27          0.641        0.099
  YS02001901           JUNCTION        0.31          0.772        0.098
  YS02001904           JUNCTION        0.31          0.695        0.155
  YS02001907           JUNCTION        0.49          0.950        0.000
  YS02001910           JUNCTION        0.35          1.004        0.096
  YS02001915           JUNCTION        0.28          0.954        0.046
  YS02001918           JUNCTION        0.21          0.810        0.000
  YS02001920           JUNCTION        0.22          1.140        0.000
  YS02001923           JUNCTION        0.01          0.820        0.000
  YS02001926           JUNCTION        0.01          0.900        0.000
  YS02001929           JUNCTION        0.01          0.780        0.000
  YS02006553           JUNCTION        0.50          1.022        0.168
  YS02006556           JUNCTION        0.42          1.021        0.329
  YS02006558           JUNCTION        0.41          1.020        0.380
  YS02006561           JUNCTION        0.24          0.505        0.645
  YS02163301           JUNCTION        0.93          0.907        0.123
  YS02163601           JUNCTION        5.41          1.022        0.058
  YS02164001           JUNCTION        1.80          0.945        0.155
  
  
  *********************
  Node Flooding Summary
  *********************
  
  Flooding refers to all water that overflows a node, whether it ponds or not.
  --------------------------------------------------------------------------
                                                             Total   Maximum
                                 Maximum   Time of Max       Flood    Ponded
                        Hours       Rate    Occurrence      Volume     Depth
  Node                 Flooded       LPS   days hr:min    10^6 ltr    Meters
  --------------------------------------------------------------------------
  WS02006252              0.01    245.63      0  00:00       0.000     0.000
  WS02006256              0.02    293.19      0  00:00       0.005     0.000
  YS02001580              0.01     81.71      0  02:09       0.000     0.000
  YS02001586              0.20    114.79      0  02:10       0.041     0.000
  YS02001590              0.01     10.47      0  02:09       0.000     0.000
  YS02001600              0.01      4.45      0  02:09       0.000     0.000
  YS02001601              0.36    650.80      0  02:14       0.474     0.000
  YS02001602              0.27     61.96      0  02:17       0.049     0.000
  YS02001610              0.21    220.08      0  02:15       0.107     0.000
  YS02001625              0.18    535.09      0  02:15       0.165     0.000
  YS02001629              0.01     16.20      0  02:14       0.000     0.000
  YS02001644              0.01      6.72      0  02:15       0.000     0.000
  YS02001779              0.01    185.84      0  02:12       0.001     0.000
  YS02001783              0.01    143.30      0  02:08       0.000     0.000
  YS02001784              0.01     95.02      0  02:08       0.000     0.000
  YS02001790              0.01    195.22      0  02:07       0.000     0.000
  YS02001791              0.01    247.43      0  02:07       0.000     0.000
  YS02001890              0.02     56.94      0  02:12       0.002     0.000
  YS02001907              0.16   1029.91      0  02:13       0.249     0.000
  YS02001918              0.01    216.67      0  02:13       0.003     0.000
  YS02001920              0.01     53.60      0  02:13       0.000     0.000
  YS02001923              0.01    258.64      0  02:12       0.001     0.000
  YS02001926              0.01    102.72      0  02:13       0.001     0.000
  YS02001929              0.01    144.51      0  02:12       0.001     0.000
  JK-storage              5.87    972.36      0  02:13       2.149     0.000
  
  
  **********************
  Storage Volume Summary
  **********************
  
  ------------------------------------------------------------------------------------------------
                         Average    Avg   Evap  Exfil     Maximum    Max    Time of Max    Maximum
                          Volume   Pcnt   Pcnt   Pcnt      Volume   Pcnt     Occurrence    Outflow
  Storage Unit           1000 m³   Full   Loss   Loss     1000 m³   Full    days hr:min        LPS
  ------------------------------------------------------------------------------------------------
  CC-storage               4.265   66.5    0.0    0.0       5.506   85.9       0  03:02    1783.53
  JK-storage               0.229   78.6    0.0    0.0       0.291  100.0       0  02:07    2300.00
  XR-storage               0.029    2.0    0.0    0.0       0.600   41.7       0  00:00     380.00
  
  
  ***********************
  Outfall Loading Summary
  ***********************
  
  -----------------------------------------------------------
                         Flow       Avg       Max       Total
                         Freq      Flow      Flow      Volume
  Outfall Node           Pcnt       LPS       LPS    10^6 ltr
  -----------------------------------------------------------
  CC-1                   1.06    683.00    683.00       0.208
  CC-2                   1.06    683.00    683.00       0.208
  JK-1                   0.98    347.46   1000.00       0.079
  JK-2                   0.98    347.46   1000.00       0.079
  WSC                   99.94    547.23    818.19      14.550
  -----------------------------------------------------------
  System                20.80   2608.16   3366.35      15.125
  
  
  ********************
  Link Flow Summary
  ********************
  
  -----------------------------------------------------------------------------
                                 Maximum  Time of Max   Maximum    Max/    Max/
                                  |Flow|   Occurrence   |Veloc|    Full    Full
  Link                 Type          LPS  days hr:min     m/sec    Flow   Depth
  -----------------------------------------------------------------------------
  1                    CONDUIT    818.19     0  02:41      3.15    0.28    0.37
  WS02001211WS02001212 CONDUIT    390.86     0  03:41      0.78    0.30    0.64
  WS02001212WS02001213 CONDUIT    392.61     0  03:40      1.32    0.61    0.45
  WS02001213WS02003059 CONDUIT    395.66     0  03:39      0.85    0.65    0.75
  WS02003059WS02003060 CONDUIT    399.94     0  03:40      0.95    0.26    0.63
  WS02003060WS02003069 CONDUIT    816.08     0  02:39      1.80    0.32    0.42
  WS02003066WSF200     CONDUIT    411.91     0  03:21      2.69    0.07    0.19
  WS02003067WS02003066 CONDUIT    411.91     0  03:21      1.04    0.13    0.38
  WS02003069WS02003072 CONDUIT    816.39     0  02:40      1.55    0.39    0.47
  WS02003072WS02003073 CONDUIT    816.38     0  02:41      1.64    1.76    0.45
  WS02004138WS02004139 CONDUIT    395.20     0  00:00      3.65    0.08    0.43
  WS02004139WS02001211 CONDUIT    381.78     0  03:41      0.91    0.48    0.59
  WS02004401WS02004402 CONDUIT    412.05     0  03:00      0.99    0.49    0.77
  WS02004402WS02004403 CONDUIT    412.07     0  03:00      0.99    0.59    0.79
  WS02004403WS02004404 CONDUIT    411.98     0  03:18      0.93    0.30    0.84
  WS02004404WS02004405 CONDUIT    412.14     0  03:00      1.10    4.04    0.88
  WS02004405WS02004406 CONDUIT    412.21     0  03:00      1.03    0.81    0.88
  WS02004406WS02004407 CONDUIT    412.08     0  03:01      0.89    0.18    0.57
  WS02004407WS02004409 CONDUIT    412.03     0  03:01      1.41    0.15    0.42
  WS02004409WS02004410 CONDUIT    412.01     0  03:19      0.92    0.53    0.58
  WS02004410WS02004411 CONDUIT    411.98     0  03:20      0.86    0.56    0.60
  WS02004411WS02004412 CONDUIT    411.97     0  03:20      0.81    0.59    0.61
  WS02004412WS02004413 CONDUIT    411.98     0  03:20      0.70    0.28    0.70
  WS02004413WS02003067 CONDUIT    411.90     0  03:21      0.96    0.18    0.54
  WS02006109WS02006110 CONDUIT    411.73     0  03:18      0.84    0.79    0.94
  WS02006110WS02006113 CONDUIT    411.93     0  02:38      1.03    0.37    0.75
  WS02006111WS02006112 CONDUIT    414.02     0  02:38      1.83    0.20    0.65
  WS02006112WS02006115 CONDUIT    412.29     0  02:38      0.71    0.24    0.78
  WS02006113WS02006111 CONDUIT    423.75     0  02:12      2.25    0.51    0.40
  WS02006115WS02006116 CONDUIT    412.16     0  03:21      0.98    0.53    0.66
  WS02006116WS02004401 CONDUIT    412.16     0  03:21      1.00    0.57    0.74
  WS02006228WS02006109 CONDUIT    410.49     0  03:18      1.06    1.79    1.00
  WS02006229WS02006228 CONDUIT    410.48     0  03:18      1.13    1.36    1.00
  WS02006230WS02006229 CONDUIT    410.47     0  03:18      1.22    9.13    1.00
  WS02006231WS02006230 CONDUIT    400.27     0  02:26      1.37    6.07    0.77
  WS02006232WS02006231 CONDUIT    400.31     0  02:26      1.08    0.84    0.92
  WS02006234WS02006232 CONDUIT    400.32     0  02:25      1.40    0.81    1.00
  WS02006235WS02006234 CONDUIT    401.36     0  02:23      1.30    4.23    0.99
  WS02006238WS02006235 CONDUIT    402.26     0  02:16      1.48    0.90    1.00
  WS02006239WS02006238 CONDUIT    401.77     0  02:16      1.21    1.29    1.00
  WS02006240WS02006239 CONDUIT    401.17     0  02:10      1.30    1.26    1.00
  WS02006242WS02006240 CONDUIT    400.67     0  02:18      1.17    1.59    1.00
  WS02006243WS02006242 CONDUIT    400.97     0  02:14      1.43    0.86    1.00
  WS02006245WS02006243 CONDUIT    401.19     0  02:08      1.45    1.19    1.00
  WS02006247WS02006245 CONDUIT    403.18     0  02:20      1.43    3.20    1.00
  WS02006248WS02006247 CONDUIT    400.92     0  02:07      1.45    0.87    1.00
  WS02006249WS02006248 CONDUIT    401.00     0  02:25      1.40    2.20    1.00
  WS02006251WS02006249 CONDUIT    474.07     0  01:51      1.99    1.37    1.00
  WS02006252WS02006251 CONDUIT    403.87     0  07:56     24.55    1.48    1.00
  WS02006256WS02006235 CONDUIT    288.91     0  00:00      4.23    3.06    1.00
  WSF200WS02003060     CONDUIT    411.91     0  03:21      1.43    0.09    0.30
  YS02001580YS02001583 CONDUIT    108.62     0  02:09      0.72    0.42    1.00
  YS02001583YS02001586 CONDUIT    172.69     0  02:09      0.73    0.26    1.00
  YS02001586YS02001590 CONDUIT    317.98     0  02:19      1.27    0.56    1.00
  YS02001590YS02001593 CONDUIT    318.08     0  02:19      1.12    2.00    1.00
  YS02001593YS02001596 CONDUIT    317.97     0  02:21      1.62    0.50    1.00
  YS02001596YS02001600 CONDUIT    318.05     0  02:21      1.12    0.62    1.00
  YS02001600YS02001601 CONDUIT    317.88     0  02:19      1.12    0.55    1.00
  YS02001601YS02001602 CONDUIT    520.76     0  02:09      1.84    1.88    1.00
  YS02001602YS02001605 CONDUIT    521.07     0  02:09      1.84   11.03    1.00
  YS02001605YS02001607 CONDUIT    520.50     0  02:09      1.84    2.85    1.00
  YS02001607YS02001610 CONDUIT    520.45     0  02:09      0.66    0.49    1.00
  YS02001610YS02001613 CONDUIT    521.76     0  02:09      0.66    0.60    1.00
  YS02001613YS02001616 CONDUIT    523.47     0  02:09      0.67    0.45    1.00
  YS02001616YS02001619 CONDUIT    494.77     0  02:09      0.66    0.86    1.00
  YS02001619YS02001622 CONDUIT    938.61     0  02:11      1.20    1.38    1.00
  YS02001622YS02001625 CONDUIT    938.01     0  02:11      1.19    0.50    1.00
  YS02001625YS02001629 CONDUIT    937.11     0  02:11      1.19    0.45    1.00
  YS02001629YS02163301 CONDUIT    935.30     0  02:11      1.19    1.15    1.00
  YS02001633YS02163601 CONDUIT   1397.69     0  02:11      1.78    1.47    1.00
  YS02001641YS02001644 CONDUIT   1388.94     0  02:11      1.77    4.49    1.00
  YS02001644YS02001647 CONDUIT   1816.65     0  02:12      2.32    1.07    1.00
  YS02001647YS02001649 CONDUIT   1828.59     0  02:11      2.37    0.97    1.00
  YS02001649YS02001757 CONDUIT   2065.94     0  02:12      2.63    1.25    1.00
  YS02001652YS02001649 CONDUIT    533.07     0  02:16      0.75    0.26    1.00
  YS02001655YS02001652 CONDUIT    534.47     0  02:16      1.31    0.26    1.00
  YS02001658YS02001655 CONDUIT    535.26     0  02:16      1.93    0.23    1.00
  YS02001661YS02001658 CONDUIT    739.13     0  02:15      2.37    0.29    0.79
  YS02001664YS02001661 CONDUIT    489.76     0  02:14      2.28    0.15    0.49
  YS02001745YS02001748 CONDUIT    399.65     0  02:15      2.19    0.15    0.57
  YS02001748YS02001751 CONDUIT    413.00     0  02:16      1.70    0.21    0.93
  YS02001751YS02001754 CONDUIT    340.02     0  02:16      1.41    0.16    1.00
  YS02001754YS02001757 CONDUIT    340.45     0  02:16      0.46    0.14    1.00
  YS02001757CaochengTiaoxuchi CONDUIT   3061.76     0  02:15      3.90    1.33    1.00
  YS02001759YS02001757 CONDUIT   1144.31     0  02:13      1.46    0.81    1.00
  YS02001762YS02001759 CONDUIT    704.25     0  02:13      0.90    0.81    1.00
  YS02001765YS02001762 CONDUIT    696.08     0  02:13      0.89    0.65    1.00
  YS02001767YS02001765 CONDUIT    685.23     0  02:13      0.87    0.86    1.00
  YS02001770YS02001767 CONDUIT    673.45     0  02:13      0.86    2.67    1.00
  YS02001774YS02001770 CONDUIT    290.81     0  02:12      0.37    0.19    1.00
  YS02001779YS02001774 CONDUIT    267.98     0  02:12      0.35    0.14    1.00
  YS02001783YS02001784 CONDUIT    969.82     0  02:13      1.93    1.34    1.00
  YS02001784YS02001785 CONDUIT    970.72     0  02:14      1.93    2.26    1.00
  YS02001786YS02001788 CONDUIT    971.27     0  02:13      2.08    1.87    1.00
  YS02001788YS02001790 CONDUIT    971.70     0  02:13      2.10    0.72    1.00
  YS02001790YS02001791 CONDUIT    971.90     0  02:13      2.45    1.06    1.00
  YS02001791YS02001793 CONDUIT    972.45     0  02:13      4.66    0.42    1.00
  YS02001793JiankangQianchi CONDUIT    972.67     0  02:13      1.54    0.08    1.00
  YS02001882YS02001884 CONDUIT     87.86     0  02:11      0.11    0.10    1.00
  YS02001884YS02001887 CONDUIT    136.24     0  02:09      0.18    0.18    1.00
  YS02001887YS02001890 CONDUIT    471.10     0  02:13      0.60    0.81    1.00
  YS02001890YS02001895 CONDUIT    464.97     0  02:13      0.59    0.22    1.00
  YS02001895YS02001898 CONDUIT    466.65     0  02:13      0.59    0.81    1.00
  YS02001898YS02001901 CONDUIT    468.61     0  02:11      0.60    0.30    1.00
  YS02001901YS02001904 CONDUIT    471.74     0  02:11      0.60    0.73    1.00
  YS02001904YS02001907 CONDUIT    478.04     0  02:11      0.61    0.17    1.00
  YS02001907YS02006553 CONDUIT    676.09     0  02:23      0.75    0.80    1.00
  YS02001910YS02001907 CONDUIT    950.35     0  02:13      1.21    0.54    1.00
  YS02001915YS02001910 CONDUIT    949.88     0  02:13      1.21    0.47    1.00
  YS02001918YS02001915 CONDUIT    592.62     0  02:11      0.78    0.33    1.00
  YS02001920YS02001918 CONDUIT    467.99     0  02:12      0.65    0.45    1.00
  YS02001923YS02001920 CONDUIT    468.61     0  02:12      0.72    0.21    1.00
  YS02001926YS02001923 CONDUIT    570.26     0  02:12      1.02    0.81    1.00
  YS02001929YS02001926 CONDUIT    419.22     0  02:13      1.15    0.20    1.00
  YS02006553YS02006556 CONDUIT    677.09     0  02:23      0.86    0.58    1.00
  YS02006556YS02006558 CONDUIT    679.11     0  02:23      0.86    0.54    1.00
  YS02006558YS02006561 CONDUIT    970.70     0  02:13      3.43    2.15    1.00
  YS02006561YS02001783 CONDUIT    970.38     0  02:14      2.10    0.50    1.00
  YS02163301YS02001633 CONDUIT    934.75     0  02:11      1.19    0.88    1.00
  YS02163601YS02164001 CONDUIT   1395.13     0  02:11      1.78    1.24    1.00
  YS02164001YS02001641 CONDUIT   1389.71     0  02:11      1.77    1.90    1.00
  CC-R1                PUMP       683.00     0  00:00              1.00
  CC-R2                PUMP       683.00     0  00:00              1.00
  CC-S1                PUMP       200.00     0  00:00              1.00
  CC-S2                PUMP       200.00     0  00:00              1.00
  JK-R1                PUMP      1000.00     0  00:00              1.00
  JK-R2                PUMP      1000.00     0  00:00              1.00
  JK-S                 PUMP       300.00     0  00:00              1.00
  XR-1                 PUMP        95.00     0  00:00              1.00
  XR-2                 PUMP        95.00     0  00:00              1.00
  XR-3                 PUMP        95.00     0  00:00              1.00
  XR-4                 PUMP        95.00     0  00:00              1.00
  
  
  ***************************
  Flow Classification Summary
  ***************************
  
  -------------------------------------------------------------------------------------
                      Adjusted    ---------- Fraction of Time in Flow Class ---------- 
                       /Actual         Up    Down  Sub   Sup   Up    Down  Norm  Inlet 
  Conduit               Length    Dry  Dry   Dry   Crit  Crit  Crit  Crit  Ltd   Ctrl  
  -------------------------------------------------------------------------------------
  1                       1.00   0.00  0.00  0.00  0.00  1.00  0.00  0.00  0.20  0.00
  WS02001211WS02001212    1.00   0.00  0.00  0.00  1.00  0.00  0.00  0.00  0.00  0.00
  WS02001212WS02001213    1.00   0.00  0.00  0.00  0.39  0.00  0.60  0.00  0.00  0.00
  WS02001213WS02003059    1.00   0.00  0.00  0.00  0.99  0.00  0.00  0.00  0.00  0.00
  WS02003059WS02003060    1.00   0.00  0.00  0.00  1.00  0.00  0.00  0.00  0.00  0.00
  WS02003060WS02003069    1.00   0.00  0.00  0.00  0.99  0.01  0.00  0.00  0.00  0.00
  WS02003066WSF200        1.00   0.02  0.10  0.00  0.00  0.88  0.00  0.00  0.86  0.00
  WS02003067WS02003066    1.00   0.10  0.02  0.00  0.89  0.00  0.00  0.00  0.00  0.00
  WS02003069WS02003072    1.00   0.00  0.00  0.00  0.99  0.01  0.00  0.00  0.00  0.00
  WS02003072WS02003073    1.00   0.00  0.00  0.00  0.00  0.00  0.00  1.00  0.00  0.00
  WS02004138WS02004139    1.00   0.00  0.00  0.00  0.99  0.01  0.00  0.00  1.00  0.00
  WS02004139WS02001211    1.00   0.00  0.00  0.00  1.00  0.00  0.00  0.00  0.00  0.00
  WS02004401WS02004402    1.00   0.02  0.00  0.00  0.98  0.00  0.00  0.00  0.00  0.00
  WS02004402WS02004403    1.00   0.02  0.00  0.00  0.98  0.00  0.00  0.00  0.00  0.00
  WS02004403WS02004404    1.00   0.00  0.03  0.00  0.97  0.00  0.00  0.00  0.00  0.00
  WS02004404WS02004405    1.00   0.00  0.00  0.00  1.00  0.00  0.00  0.00  0.00  0.00
  WS02004405WS02004406    1.00   0.00  0.00  0.00  1.00  0.00  0.00  0.00  0.00  0.00
  WS02004406WS02004407    1.00   0.00  0.05  0.00  0.95  0.00  0.00  0.00  0.00  0.00
  WS02004407WS02004409    1.00   0.05  0.00  0.00  0.94  0.01  0.00  0.00  0.94  0.00
  WS02004409WS02004410    1.00   0.05  0.00  0.00  0.95  0.00  0.00  0.00  0.02  0.00
  WS02004410WS02004411    1.00   0.05  0.00  0.00  0.95  0.00  0.00  0.00  0.00  0.00
  WS02004411WS02004412    1.00   0.05  0.00  0.00  0.95  0.00  0.00  0.00  0.00  0.00
  WS02004412WS02004413    1.00   0.05  0.00  0.00  0.94  0.00  0.00  0.00  0.01  0.00
  WS02004413WS02003067    1.00   0.06  0.04  0.00  0.00  0.00  0.90  0.00  0.00  0.00
  WS02006109WS02006110    1.00   0.00  0.01  0.00  0.98  0.00  0.01  0.00  0.00  0.00
  WS02006110WS02006113    1.00   0.01  0.01  0.00  0.98  0.00  0.00  0.00  0.00  0.00
  WS02006111WS02006112    1.00   0.02  0.00  0.00  0.98  0.00  0.00  0.00  0.98  0.00
  WS02006112WS02006115    1.00   0.02  0.00  0.00  0.97  0.00  0.00  0.00  0.00  0.00
  WS02006113WS02006111    1.00   0.02  0.00  0.00  0.00  0.98  0.00  0.00  0.12  0.00
  WS02006115WS02006116    1.00   0.02  0.00  0.00  0.97  0.00  0.00  0.01  0.00  0.00
  WS02006116WS02004401    1.00   0.02  0.00  0.00  0.98  0.00  0.00  0.00  0.00  0.00
  WS02006228WS02006109    1.00   0.00  0.00  0.00  1.00  0.00  0.00  0.00  0.01  0.00
  WS02006229WS02006228    1.00   0.00  0.00  0.00  0.99  0.00  0.00  0.01  0.00  0.00
  WS02006230WS02006229    1.00   0.00  0.00  0.00  0.99  0.00  0.00  0.01  0.00  0.00
  WS02006231WS02006230    1.00   0.00  0.00  0.00  0.21  0.00  0.79  0.00  0.00  0.00
  WS02006232WS02006231    1.00   0.00  0.00  0.00  0.99  0.00  0.01  0.00  0.00  0.00
  WS02006234WS02006232    1.00   0.00  0.00  0.00  1.00  0.00  0.00  0.00  0.46  0.00
  WS02006235WS02006234    1.00   0.00  0.00  0.00  0.50  0.00  0.50  0.00  0.00  0.00
  WS02006238WS02006235    1.00   0.00  0.00  0.00  1.00  0.00  0.00  0.00  0.00  0.00
  WS02006239WS02006238    1.00   0.00  0.00  0.00  1.00  0.00  0.00  0.00  0.55  0.00
  WS02006240WS02006239    1.00   0.00  0.00  0.00  0.41  0.00  0.00  0.59  0.02  0.00
  WS02006242WS02006240    1.00   0.00  0.00  0.00  0.99  0.00  0.01  0.00  0.00  0.00
  WS02006243WS02006242    1.00   0.00  0.00  0.00  0.99  0.00  0.00  0.01  0.64  0.00
  WS02006245WS02006243    1.00   0.00  0.00  0.00  0.46  0.00  0.00  0.54  0.01  0.00
  WS02006247WS02006245    1.00   0.00  0.00  0.00  0.98  0.00  0.00  0.02  0.00  0.00
  WS02006248WS02006247    1.00   0.00  0.00  0.00  0.99  0.00  0.00  0.01  0.14  0.00
  WS02006249WS02006248    1.00   0.00  0.00  0.00  0.36  0.00  0.64  0.00  0.00  0.00
  WS02006251WS02006249    1.00   0.00  0.00  0.00  1.00  0.00  0.00  0.00  0.65  0.00
  WS02006252WS02006251    1.00   0.00  0.70  0.00  0.00  0.00  0.30  0.00  0.01  0.00
  WS02006256WS02006235    1.00   0.00  0.00  0.00  1.00  0.00  0.00  0.00  0.00  0.00
  WSF200WS02003060        1.00   0.00  0.02  0.00  0.98  0.00  0.00  0.00  0.71  0.00
  YS02001580YS02001583    1.00   0.27  0.58  0.00  0.15  0.00  0.00  0.00  0.67  0.00
  YS02001583YS02001586    1.00   0.50  0.30  0.00  0.20  0.00  0.00  0.00  0.68  0.00
  YS02001586YS02001590    1.00   0.13  0.00  0.00  0.37  0.04  0.00  0.46  0.35  0.00
  YS02001590YS02001593    1.00   0.13  0.01  0.00  0.07  0.00  0.79  0.00  0.00  0.00
  YS02001593YS02001596    1.00   0.14  0.00  0.00  0.09  0.01  0.00  0.76  0.03  0.00
  YS02001596YS02001600    1.00   0.14  0.00  0.00  0.77  0.01  0.00  0.08  0.31  0.00
  YS02001600YS02001601    1.00   0.13  0.01  0.00  0.86  0.00  0.00  0.00  0.06  0.00
  YS02001601YS02001602    1.00   0.13  0.01  0.00  0.86  0.00  0.00  0.00  0.00  0.00
  YS02001602YS02001605    1.00   0.14  0.00  0.00  0.86  0.00  0.00  0.00  0.00  0.00
  YS02001605YS02001607    1.00   0.14  0.00  0.00  0.86  0.00  0.00  0.00  0.00  0.00
  YS02001607YS02001610    1.00   0.13  0.01  0.00  0.86  0.00  0.00  0.00  0.02  0.00
  YS02001610YS02001613    1.00   0.13  0.00  0.00  0.87  0.00  0.00  0.00  0.01  0.00
  YS02001613YS02001616    1.00   0.13  0.00  0.00  0.87  0.00  0.00  0.00  0.01  0.00
  YS02001616YS02001619    1.00   0.13  0.00  0.00  0.87  0.00  0.00  0.00  0.00  0.00
  YS02001619YS02001622    1.00   0.13  0.00  0.00  0.87  0.00  0.00  0.00  0.00  0.00
  YS02001622YS02001625    1.00   0.13  0.00  0.00  0.87  0.00  0.00  0.00  0.06  0.00
  YS02001625YS02001629    1.00   0.13  0.06  0.00  0.75  0.00  0.06  0.00  0.00  0.00
  YS02001629YS02163301    1.00   0.16  0.01  0.00  0.83  0.00  0.00  0.00  0.00  0.00
  YS02001633YS02163601    1.00   0.00  0.01  0.00  0.99  0.00  0.00  0.00  0.15  0.00
  YS02001641YS02001644    1.00   0.00  0.01  0.00  0.99  0.00  0.00  0.00  0.00  0.00
  YS02001644YS02001647    1.00   0.00  0.19  0.00  0.81  0.00  0.00  0.00  0.00  0.00
  YS02001647YS02001649    1.00   0.00  0.19  0.00  0.77  0.04  0.00  0.00  0.02  0.00
  YS02001649YS02001757    1.00   0.00  0.00  0.00  0.95  0.05  0.00  0.00  0.20  0.00
  YS02001652YS02001649    1.00   0.00  0.00  0.00  0.96  0.04  0.00  0.00  0.20  0.00
  YS02001655YS02001652    1.00   0.00  0.00  0.00  0.75  0.01  0.00  0.25  0.01  0.00
  YS02001658YS02001655    1.00   0.00  0.14  0.00  0.73  0.12  0.00  0.00  0.07  0.00
  YS02001661YS02001658    1.00   0.14  0.00  0.00  0.72  0.13  0.00  0.00  0.75  0.00
  YS02001664YS02001661    1.00   0.13  0.00  0.00  0.78  0.10  0.00  0.00  0.87  0.00
  YS02001745YS02001748    1.00   0.00  0.00  0.00  0.72  0.00  0.00  0.28  0.71  0.00
  YS02001748YS02001751    1.00   0.00  0.00  0.00  0.88  0.12  0.00  0.00  0.13  0.00
  YS02001751YS02001754    1.00   0.00  0.00  0.00  0.73  0.00  0.00  0.26  0.01  0.00
  YS02001754YS02001757    1.00   0.00  0.00  0.00  1.00  0.00  0.00  0.00  0.26  0.00
  YS02001757CaochengTiaoxuchi    1.00   0.00  0.00  0.00  0.98  0.02  0.00  0.00  0.24  0.00
  YS02001759YS02001757    1.00   0.00  0.00  0.00  1.00  0.00  0.00  0.00  0.08  0.00
  YS02001762YS02001759    1.00   0.00  0.00  0.00  1.00  0.00  0.00  0.00  0.05  0.00
  YS02001765YS02001762    1.00   0.00  0.00  0.00  1.00  0.00  0.00  0.00  0.18  0.00
  YS02001767YS02001765    1.00   0.00  0.00  0.00  1.00  0.00  0.00  0.00  0.00  0.00
  YS02001770YS02001767    1.00   0.00  0.00  0.00  1.00  0.00  0.00  0.00  0.00  0.00
  YS02001774YS02001770    1.00   0.00  0.13  0.00  0.86  0.00  0.00  0.00  0.04  0.00
  YS02001779YS02001774    1.00   0.00  0.00  0.00  1.00  0.00  0.00  0.00  0.20  0.00
  YS02001783YS02001784    1.00   0.00  0.19  0.00  0.81  0.00  0.00  0.00  0.00  0.00
  YS02001784YS02001785    1.00   0.00  0.00  0.00  1.00  0.00  0.00  0.00  0.18  0.00
  YS02001786YS02001788    1.00   0.00  0.00  0.00  0.94  0.06  0.00  0.00  0.00  0.00
  YS02001788YS02001790    1.00   0.00  0.00  0.00  0.94  0.06  0.00  0.00  0.21  0.00
  YS02001790YS02001791    1.00   0.00  0.00  0.00  0.75  0.25  0.00  0.00  0.04  0.00
  YS02001791YS02001793    1.00   0.00  0.00  0.00  0.74  0.26  0.00  0.00  0.00  0.00
  YS02001793JiankangQianchi    1.00   0.00  0.00  0.00  0.94  0.06  0.00  0.00  0.23  0.00
  YS02001882YS02001884    1.00   0.16  0.01  0.00  0.83  0.00  0.00  0.00  0.00  0.00
  YS02001884YS02001887    1.00   0.06  0.05  0.00  0.89  0.00  0.00  0.00  0.00  0.00
  YS02001887YS02001890    1.00   0.00  0.00  0.00  0.97  0.00  0.03  0.00  0.00  0.00
  YS02001890YS02001895    1.00   0.00  0.17  0.00  0.82  0.00  0.00  0.00  0.00  0.00
  YS02001895YS02001898    1.00   0.18  0.00  0.00  0.80  0.00  0.02  0.00  0.00  0.00
  YS02001898YS02001901    1.00   0.18  0.00  0.00  0.82  0.00  0.00  0.00  0.01  0.00
  YS02001901YS02001904    1.00   0.18  0.00  0.00  0.82  0.00  0.00  0.00  0.00  0.00
  YS02001904YS02001907    1.00   0.00  0.17  0.00  0.82  0.00  0.00  0.00  0.00  0.00
  YS02001907YS02006553    1.00   0.00  0.02  0.00  0.98  0.00  0.00  0.00  0.00  0.00
  YS02001910YS02001907    1.00   0.00  0.00  0.00  0.97  0.00  0.00  0.03  0.12  0.00
  YS02001915YS02001910    1.00   0.00  0.00  0.00  0.96  0.04  0.00  0.00  0.17  0.00
  YS02001918YS02001915    1.00   0.00  0.01  0.00  0.98  0.02  0.00  0.00  0.79  0.00
  YS02001920YS02001918    1.00   0.00  0.01  0.00  0.99  0.00  0.00  0.00  0.00  0.00
  YS02001923YS02001920    1.00   0.00  0.00  0.00  1.00  0.00  0.00  0.00  0.95  0.00
  YS02001926YS02001923    1.00   0.00  0.07  0.00  0.04  0.00  0.89  0.00  0.00  0.00
  YS02001929YS02001926    1.00   0.00  0.13  0.00  0.87  0.00  0.00  0.00  0.84  0.00
  YS02006553YS02006556    1.00   0.01  0.00  0.00  0.99  0.00  0.00  0.00  0.03  0.00
  YS02006556YS02006558    1.00   0.00  0.00  0.00  1.00  0.00  0.00  0.00  0.00  0.00
  YS02006558YS02006561    1.00   0.19  0.00  0.00  0.05  0.76  0.00  0.00  0.18  0.00
  YS02006561YS02001783    1.00   0.19  0.00  0.00  0.73  0.07  0.00  0.00  0.73  0.00
  YS02163301YS02001633    1.00   0.00  0.16  0.00  0.84  0.00  0.00  0.00  0.00  0.00
  YS02163601YS02164001    1.00   0.00  0.08  0.00  0.92  0.00  0.00  0.00  0.00  0.00
  YS02164001YS02001641    1.00   0.01  0.07  0.00  0.92  0.00  0.00  0.00  0.06  0.00
  
  
  *************************
  Conduit Surcharge Summary
  *************************
  
  ----------------------------------------------------------------------------
                                                           Hours        Hours 
                         --------- Hours Full --------   Above Full   Capacity
  Conduit                Both Ends  Upstream  Dnstream   Normal Flow   Limited
  ----------------------------------------------------------------------------
  WS02003072WS02003073        0.01      0.01      0.01      2.52         0.01
  WS02004404WS02004405        0.01      0.01      0.01      2.48         0.01
  WS02006109WS02006110        0.01      0.01      1.51      0.01         0.01
  WS02006110WS02006113        0.01      0.01      1.46      0.01         0.01
  WS02006111WS02006112        0.01      0.01      1.67      0.01         0.01
  WS02006228WS02006109        1.39      1.52      1.39      1.97         1.39
  WS02006229WS02006228        1.38      1.41      1.38      1.72         1.38
  WS02006230WS02006229        1.62      1.67      1.62      2.93         1.62
  WS02006231WS02006230        0.01      0.01      0.01      2.75         0.01
  WS02006232WS02006231        0.01      0.01      1.53      0.01         0.01
  WS02006234WS02006232        1.36      1.36      1.53      0.01         0.01
  WS02006235WS02006234        0.01      0.01      1.41      2.53         0.01
  WS02006238WS02006235        1.43      1.43      1.55      0.01         0.01
  WS02006239WS02006238        1.46      1.52      1.46      1.79         1.46
  WS02006240WS02006239        1.42      1.45      1.42      1.80         1.42
  WS02006242WS02006240        1.43      1.43      1.63      1.93         0.01
  WS02006243WS02006242        1.48      1.48      1.59      0.01         0.01
  WS02006245WS02006243        1.46      1.48      1.46      1.90         1.46
  WS02006247WS02006245        1.47      1.52      1.47      2.35         1.47
  WS02006248WS02006247        1.47      1.47      1.50      0.01         0.01
  WS02006249WS02006248        1.45      1.45      1.49      2.31         0.01
  WS02006251WS02006249        1.49      1.50      1.49      2.03         1.48
  WS02006252WS02006251        2.07      2.07      2.07      2.07         0.01
  WS02006256WS02006235        2.61      2.61      3.56      0.02         0.01
  YS02001580YS02001583        0.29      0.29      0.32      0.01         0.01
  YS02001583YS02001586        0.29      0.29      0.42      0.01         0.01
  YS02001586YS02001590        0.42      0.42      0.48      0.01         0.01
  YS02001590YS02001593        0.48      0.48      0.50      0.49         0.01
  YS02001593YS02001596        0.49      0.49      0.59      0.01         0.01
  YS02001596YS02001600        0.63      0.63      0.75      0.01         0.01
  YS02001600YS02001601        0.83      0.83      1.83      0.01         0.01
  YS02001601YS02001602        1.20      1.20      4.49      0.68         0.01
  YS02001602YS02001605        1.16      1.16      1.20      1.87         0.01
  YS02001605YS02001607        1.13      1.16      3.54      0.94         0.84
  YS02001607YS02001610        0.49      0.49      0.52      0.01         0.01
  YS02001610YS02001613        0.48      0.48      0.52      0.01         0.01
  YS02001613YS02001616        0.44      0.44      0.48      0.01         0.01
  YS02001616YS02001619        0.43      0.43      0.44      0.01         0.01
  YS02001619YS02001622        0.42      0.43      0.43      0.44         0.39
  YS02001622YS02001625        0.43      0.43      0.69      0.01         0.01
  YS02001625YS02001629        0.38      0.38      0.69      0.01         0.01
  YS02001629YS02163301        0.81      0.81      0.93      0.09         0.12
  YS02001633YS02163601        1.07      1.07      5.41      0.31         0.29
  YS02001641YS02001644        4.39      4.40      4.58      1.04         0.99
  YS02001644YS02001647        0.37      0.37      4.58      0.04         0.01
  YS02001647YS02001649        0.37      0.37      5.42      0.01         0.01
  YS02001649YS02001757        5.41      5.42      5.80      0.20         0.15
  YS02001652YS02001649        0.29      0.29      5.42      0.01         0.01
  YS02001655YS02001652        0.09      0.09      0.25      0.01         0.01
  YS02001658YS02001655        0.01      0.01      0.09      0.01         0.01
  YS02001661YS02001658        0.01      0.01      0.01      0.01         0.01
  YS02001748YS02001751        0.01      0.01      0.02      0.01         0.01
  YS02001751YS02001754        0.02      0.02      0.11      0.01         0.01
  YS02001754YS02001757        0.17      0.17      5.80      0.01         0.01
  YS02001757CaochengTiaoxuchi        5.76      5.80      5.76      0.19         0.13
  YS02001759YS02001757        5.63      5.63      5.80      0.01         0.01
  YS02001762YS02001759        5.31      5.31      5.63      0.01         0.02
  YS02001765YS02001762        2.98      2.98      5.31      0.01         0.01
  YS02001767YS02001765        0.84      0.84      2.99      0.01         0.02
  YS02001770YS02001767        0.63      0.63      0.84      0.27         0.15
  YS02001774YS02001770        0.28      0.28      4.87      0.01         0.01
  YS02001779YS02001774        0.12      0.12      4.87      0.01         0.01
  YS02001783YS02001784        0.45      0.45      0.46      0.37         0.37
  YS02001784YS02001785        0.45      0.46      0.45      0.58         0.45
  YS02001786YS02001788        0.45      0.45      0.45      0.50         0.45
  YS02001788YS02001790        0.45      0.45      5.88      0.01         0.01
  YS02001790YS02001791        5.88      5.88      5.88      0.19         0.20
  YS02001791YS02001793        5.88      5.88      5.91      0.01         0.01
  YS02001793JiankangQianchi        5.91      5.91      6.16      0.01         0.01
  YS02001882YS02001884        0.28      0.28      0.29      0.01         0.01
  YS02001884YS02001887        0.32      0.32      0.33      0.01         0.01
  YS02001887YS02001890        0.34      0.34      0.34      0.01         0.01
  YS02001890YS02001895        0.28      0.28      0.35      0.01         0.01
  YS02001895YS02001898        0.27      0.27      0.28      0.01         0.01
  YS02001898YS02001901        0.28      0.28      0.31      0.01         0.01
  YS02001901YS02001904        0.31      0.31      0.31      0.01         0.01
  YS02001904YS02001907        0.31      0.31      0.50      0.01         0.01
  YS02001907YS02006553        0.60      0.60      0.64      0.01         0.01
  YS02001910YS02001907        0.35      0.35      0.49      0.01         0.01
  YS02001915YS02001910        0.28      0.28      0.35      0.01         0.01
  YS02001918YS02001915        0.21      0.21      0.28      0.01         0.01
  YS02001920YS02001918        0.21      0.21      0.22      0.01         0.01
  YS02001923YS02001920        0.15      0.15      0.22      0.01         0.01
  YS02001926YS02001923        0.01      0.01      0.01      0.01         0.01
  YS02001929YS02001926        0.01      0.01      0.01      0.01         0.01
  YS02006553YS02006556        0.42      0.42      0.50      0.01         0.01
  YS02006556YS02006558        0.45      0.45      0.51      0.01         0.01
  YS02006558YS02006561        0.31      0.41      0.31      0.55         0.31
  YS02006561YS02001783        0.24      0.24      0.45      0.01         0.01
  YS02163301YS02001633        0.93      0.93      2.45      0.01         0.01
  YS02163601YS02164001        1.72      1.72      5.41      0.07         0.01
  YS02164001YS02001641        1.71      1.71      4.40      0.53         0.49
  
  
  ***************
  Pumping Summary
  ***************
  
  ---------------------------------------------------------------------------------------------------------
                                                  Min       Avg       Max     Total     Power    % Time Off
                        Percent   Number of      Flow      Flow      Flow    Volume     Usage    Pump Curve
  Pump                 Utilized   Start-Ups       LPS       LPS       LPS  10^6 ltr     Kw-hr    Low   High
  ---------------------------------------------------------------------------------------------------------
  CC-R1                    1.06           1      0.00    683.00    683.00     0.208      3.51    0.0  100.0
  CC-R2                    1.06           1      0.00    683.00    683.00     0.208      3.51    0.0  100.0
  CC-S1                   30.08           7      0.00    200.00    200.00     1.732      8.62    0.0    0.0
  CC-S2                   25.91           5      0.00    200.00    200.00     1.492      7.84    0.0    0.0
  JK-R1                    0.97           2      0.00    347.46   1000.00     0.078      0.47    0.0    0.0
  JK-R2                    0.97           2      0.00    347.46   1000.00     0.078      0.47    0.0    0.0
  JK-S                     0.97           2      0.00    104.30    300.00     0.023      0.44    0.0    0.0
  XR-1                   100.00           1      0.00     95.00     95.00     2.736     68.18    0.0    0.0
  XR-2                   100.00           1      0.00     95.00     95.00     2.736     68.18    0.0    0.0
  XR-3                   100.00           1      0.00     95.00     95.00     2.736     68.18    0.0    0.0
  XR-4                   100.00           1      0.00     95.00     95.00     2.736     68.18    0.0    0.0
  

  Analysis begun on:  Wed Nov  5 16:29:19 2025
  Analysis ended on:  Wed Nov  5 16:29:21 2025
  Total elapsed time: 00:00:02