
  EPA STORM WATER MANAGEMENT MODEL - VERSION 5.2 (Build 5.2.4)
  PYSWMM TOOLKIT API - VERSION v1.0 (2023-11-27)
  ------------------------------------------------------------

  WARNING 04: minimum elevation drop used for Conduit WS02004404WS02004405
  WARNING 03: negative offset ignored for Link YS02001904YS02001907
  
  ****************
  Analysis Options
  ****************
  Flow Units ............... LPS
  Process Models:
    Rainfall/Runoff ........ YES
    RDII ................... NO
    Snowmelt ............... NO
    Groundwater ............ NO
    Flow Routing ........... YES
    Ponding Allowed ........ NO
    Water Quality .......... NO
  Infiltration Method ...... HORTON
  Flow Routing Method ...... DYNWAVE
  Surcharge Method ......... EXTRAN
  Starting Date ............ 08/28/2015 08:00:00
  Ending Date .............. 08/28/2015 16:00:00
  Antecedent Dry Days ...... 8.0
  Report Time Step ......... 00:01:00
  Wet Time Step ............ 00:01:00
  Dry Time Step ............ 00:01:00
  Routing Time Step ........ 30.00 sec
  Variable Time Step ....... YES
  Maximum Trials ........... 8
  Number of Threads ........ 4
  Head Tolerance ........... 0.001500 m
  
  
  **************************        Volume         Depth
  Runoff Quantity Continuity     hectare-m            mm
  **************************     ---------       -------
  Initial LID Storage ......         0.049         1.488
  Total Precipitation ......         2.566        77.347
  Evaporation Loss .........         0.000         0.000
  Infiltration Loss ........         0.078         2.349
  Surface Runoff ...........         1.922        57.929
  Final Storage ............         0.616        18.577
  Continuity Error (%) .....        -0.025
  
  
  **************************        Volume        Volume
  Flow Routing Continuity        hectare-m      10^6 ltr
  **************************     ---------     ---------
  Dry Weather Inflow .......         0.602         6.020
  Wet Weather Inflow .......         1.921        19.213
  Groundwater Inflow .......         0.000         0.000
  RDII Inflow ..............         0.000         0.000
  External Inflow ..........         0.105         1.045
  External Outflow .........         1.508        15.076
  Flooding Loss ............         1.055        10.549
  Evaporation Loss .........         0.000         0.000
  Exfiltration Loss ........         0.000         0.000
  Initial Stored Volume ....         0.303         3.031
  Final Stored Volume ......         0.827         8.274
  Continuity Error (%) .....       -15.663
  
  
  *************************
  Highest Continuity Errors
  *************************
  Node YS02001774 (12.45%)
  Node YS02001583 (-6.64%)
  Node WS02006256 (-6.13%)
  Node YS02001884 (4.78%)
  Node YS02001754 (2.97%)
  
  
  ***************************
  Time-Step Critical Elements
  ***************************
  Link WS02001212WS02001213 (33.46%)
  Link WS02006238WS02006235 (20.04%)
  Link WS02006235WS02006234 (18.67%)
  Link YS02006556YS02006558 (7.25%)
  Link WS02003066WSF200 (5.46%)
  
  
  ********************************
  Highest Flow Instability Indexes
  ********************************
  Link WS02006113WS02006111 (41)
  Link WS02006111WS02006112 (30)
  Link WS02006256WS02006235 (22)
  Link WS02006110WS02006113 (20)
  Link YS02001607YS02001610 (20)
  
  
  *********************************
  Most Frequent Nonconverging Nodes
  *********************************
  Node CC-1 (10.43%)
  Node CC-2 (10.43%)
  Node JK-1 (10.43%)
  Node JK-2 (10.43%)
  Node WSC (10.43%)
  
  
  *************************
  Routing Time Step Summary
  *************************
  Minimum Time Step           :     0.01 sec
  Average Time Step           :     3.72 sec
  Maximum Time Step           :     6.46 sec
  % of Time in Steady State   :     0.00
  Average Iterations per Step :     3.12
  % of Steps Not Converging   :    10.43
  Time Step Frequencies       :
     30.000 - 13.228 sec      :     0.00 %
     13.228 -  5.833 sec      :    32.39 %
      5.833 -  2.572 sec      :    36.85 %
      2.572 -  1.134 sec      :    22.25 %
      1.134 -  0.500 sec      :     8.51 %
  
  
  ***************************
  Subcatchment Runoff Summary
  ***************************
  
  ------------------------------------------------------------------------------------------------------------------------------
                            Total      Total      Total      Total     Imperv       Perv      Total       Total     Peak  Runoff
                           Precip      Runon       Evap      Infil     Runoff     Runoff     Runoff      Runoff   Runoff   Coeff
  Subcatchment                 mm         mm         mm         mm         mm         mm         mm    10^6 ltr      LPS
  ------------------------------------------------------------------------------------------------------------------------------
  sub60                     77.35       0.00       0.00       1.41      51.61       5.76      57.37        0.75   524.99   0.742
  sub61                     77.35       0.00       0.00       2.16      51.56       8.59      60.16        1.10   765.28   0.778
  sub62                     77.35       0.00       0.00       0.96      54.97       3.91      58.89        1.61  1045.05   0.761
  sub63                     77.35       0.00       0.00       3.93      44.16      14.43      58.59        1.33   861.57   0.758
  sub64                     77.35       0.00       0.00       1.89      50.29       7.15      57.44        1.38   847.41   0.743
  sub65                     77.35       0.00       0.00       1.74      54.28       6.53      60.81        1.67   991.38   0.786
  sub66                     77.35       0.00       0.00       4.56      42.72      13.22      55.94        2.61  1276.76   0.723
  sub67                     77.35       0.00       0.00       0.95      56.36       4.04      60.40        1.12   810.75   0.781
  sub68                     77.35       0.00       0.00       1.66      49.77       6.59      56.37        1.55  1044.25   0.729
  sub69                     77.35       0.00       0.00       1.51      52.02       7.68      59.70        2.21  1283.28   0.772
  sub70                     77.35       0.00       0.00       5.04      41.69      16.49      58.18        1.68   734.59   0.752
  sub71                     77.35       0.00       0.00       0.88      49.94       3.54      53.48        1.40   857.05   0.691
  sub72                     77.35       0.00       0.00       0.84      53.95       3.30      57.25        0.79   441.27   0.740
  

  ***********************
  LID Performance Summary
  ***********************

  --------------------------------------------------------------------------------------------------------------------
                                         Total      Evap     Infil   Surface    Drain    Initial     Final  Continuity
                                        Inflow      Loss      Loss   Outflow   Outflow   Storage   Storage       Error
  Subcatchment      LID Control             mm        mm        mm        mm        mm        mm        mm           %
  --------------------------------------------------------------------------------------------------------------------
  sub60             GreenRoof            77.35      0.00      0.00      0.00      0.00      7.05     84.42       -0.02
  sub61             GreenRoof            77.35      0.00      0.00      0.00      0.00      7.05     84.42       -0.02
  sub62             GreenRoof            77.35      0.00      0.00      0.00      0.00      7.05     84.42       -0.02
  sub63             GreenRoof            77.35      0.00      0.00      0.00      0.00      7.05     84.42       -0.02
  sub64             GreenRoof            77.35      0.00      0.00      0.00      0.00      7.05     84.42       -0.02
  sub65             GreenRoof            77.35      0.00      0.00      0.00      0.00      7.05     84.42       -0.02
  sub66             GreenRoof            77.35      0.00      0.00      0.00      0.00      7.05     84.42       -0.02
  sub67             GreenRoof            77.35      0.00      0.00      0.00      0.00      7.05     84.42       -0.02
  sub68             GreenRoof            77.35      0.00      0.00      0.00      0.00      7.05     84.42       -0.02
  sub69             GreenRoof            77.35      0.00      0.00      0.00      0.00      7.05     84.42       -0.02
  sub70             GreenRoof            77.35      0.00      0.00      0.00      0.00      7.05     84.42       -0.02
  sub71             GreenRoof            77.35      0.00      0.00      0.00      0.00      7.05     84.42       -0.02
  sub72             GreenRoof            77.35      0.00      0.00      0.00      0.00      7.05     84.42       -0.02
  
  ******************
  Node Depth Summary
  ******************
  
  ---------------------------------------------------------------------------------
                                 Average  Maximum  Maximum  Time of Max    Reported
                                   Depth    Depth      HGL   Occurrence   Max Depth
  Node                 Type       Meters   Meters   Meters  days hr:min      Meters
  ---------------------------------------------------------------------------------
  WS02001211           JUNCTION     0.76     0.78     5.62     0  03:13        0.78
  WS02001212           JUNCTION     0.46     0.49     5.55     0  03:15        0.49
  WS02001213           JUNCTION     0.68     0.73     5.49     0  03:15        0.73
  WS02003059           JUNCTION     0.73     0.78     5.47     0  03:11        0.78
  WS02003060           JUNCTION     0.38     0.47     5.41     0  03:14        0.47
  WS02003066           JUNCTION     0.16     0.27     5.82     0  03:14        0.27
  WS02003067           JUNCTION     0.43     0.65     5.97     0  03:10        0.65
  WS02003069           JUNCTION     0.43     0.54     5.12     0  03:15        0.54
  WS02003072           JUNCTION     0.49     0.60     4.97     0  03:15        0.60
  WS02003073           JUNCTION     0.29     0.37     4.43     0  03:12        0.37
  WS02004138           JUNCTION     0.19     0.20     7.45     0  00:00        0.19
  WS02004139           JUNCTION     0.71     0.73     5.64     0  03:14        0.73
  WS02004401           JUNCTION     0.52     0.75     6.75     0  03:08        0.75
  WS02004402           JUNCTION     0.55     0.78     6.74     0  03:08        0.78
  WS02004403           JUNCTION     0.57     0.80     6.73     0  03:08        0.80
  WS02004404           JUNCTION     0.65     0.88     6.73     0  03:08        0.88
  WS02004405           JUNCTION     0.64     0.87     6.72     0  03:08        0.87
  WS02004406           JUNCTION     0.66     0.88     6.71     0  03:11        0.88
  WS02004407           JUNCTION     0.14     0.26     6.57     0  03:11        0.26
  WS02004409           JUNCTION     0.31     0.57     6.34     0  03:12        0.57
  WS02004410           JUNCTION     0.34     0.59     6.31     0  03:12        0.59
  WS02004411           JUNCTION     0.36     0.61     6.29     0  03:09        0.61
  WS02004412           JUNCTION     0.38     0.62     6.26     0  03:10        0.62
  WS02004413           JUNCTION     0.54     0.79     6.26     0  03:13        0.79
  WS02006109           JUNCTION     0.57     0.83     7.45     0  01:49        0.83
  WS02006110           JUNCTION     0.58     0.82     7.41     0  02:27        0.82
  WS02006111           JUNCTION     0.14     0.25     6.96     0  03:10        0.25
  WS02006112           JUNCTION     0.67     0.93     6.82     0  03:02        0.93
  WS02006113           JUNCTION     0.22     0.39     7.29     0  03:26        0.39
  WS02006115           JUNCTION     0.40     0.65     6.78     0  03:06        0.65
  WS02006116           JUNCTION     0.49     0.73     6.77     0  03:07        0.73
  WS02006228           JUNCTION     0.56     0.84     7.49     0  01:49        0.84
  WS02006229           JUNCTION     0.53     0.82     7.52     0  01:49        0.82
  WS02006230           JUNCTION     0.51     0.86     7.60     0  01:49        0.86
  WS02006231           JUNCTION     0.31     0.60     7.72     0  01:49        0.60
  WS02006232           JUNCTION     0.43     0.75     7.79     0  01:49        0.75
  WS02006234           JUNCTION     0.35     0.71     7.87     0  01:48        0.71
  WS02006235           JUNCTION     0.38     0.77     7.93     0  01:47        0.76
  WS02006238           JUNCTION     0.41     0.80     7.95     0  02:24        0.80
  WS02006239           JUNCTION     0.38     0.81     8.02     0  01:47        0.80
  WS02006240           JUNCTION     0.37     0.79     8.08     0  01:47        0.79
  WS02006242           JUNCTION     0.44     0.90     8.17     0  01:48        0.90
  WS02006243           JUNCTION     0.37     0.84     8.26     0  01:59        0.84
  WS02006245           JUNCTION     0.38     0.85     8.34     0  01:49        0.85
  WS02006247           JUNCTION     0.40     0.89     8.39     0  01:47        0.89
  WS02006248           JUNCTION     0.37     0.86     8.44     0  01:52        0.85
  WS02006249           JUNCTION     0.40     0.90     8.49     0  02:22        0.90
  WS02006251           JUNCTION     0.39     0.91     8.58     0  01:48        0.91
  WS02006252           JUNCTION     0.27     1.50     9.74     0  00:00        0.59
  WS02006256           JUNCTION     0.62     2.35     9.28     0  00:00        2.35
  WSF200               JUNCTION     0.13     0.25     5.48     0  03:10        0.25
  YS02001580           JUNCTION     0.15     1.05     9.59     0  01:44        0.78
  YS02001583           JUNCTION     0.18     1.04     9.54     0  01:44        0.82
  YS02001586           JUNCTION     0.29     1.13     9.30     0  01:44        1.13
  YS02001590           JUNCTION     0.41     1.40     9.26     0  01:44        1.38
  YS02001593           JUNCTION     0.35     1.36     9.23     0  01:44        1.29
  YS02001596           JUNCTION     0.64     1.71     9.12     0  01:44        1.66
  YS02001600           JUNCTION     0.87     1.87     9.00     0  01:42        1.87
  YS02001601           JUNCTION     1.12     2.06     8.90     0  01:42        2.06
  YS02001602           JUNCTION     1.02     1.87     8.77     0  01:42        1.87
  YS02001605           JUNCTION     0.98     1.78     8.68     0  01:42        1.78
  YS02001607           JUNCTION     0.96     1.65     8.49     0  01:47        1.64
  YS02001610           JUNCTION     1.00     1.68     8.48     0  01:44        1.68
  YS02001613           JUNCTION     0.96     1.66     8.50     0  01:45        1.66
  YS02001616           JUNCTION     0.90     1.61     8.52     0  01:48        1.61
  YS02001619           JUNCTION     0.88     1.61     8.54     0  01:48        1.61
  YS02001622           JUNCTION     0.89     1.58     8.48     0  01:48        1.57
  YS02001625           JUNCTION     1.14     1.78     8.38     0  01:44        1.78
  YS02001629           JUNCTION     1.17     1.85     8.40     0  01:44        1.85
  YS02001633           JUNCTION     1.25     2.06     8.51     0  02:21        2.06
  YS02001641           JUNCTION     1.23     2.10     8.54     0  02:21        2.10
  YS02001644           JUNCTION     1.22     1.92     8.35     0  01:47        1.92
  YS02001647           JUNCTION     1.04     1.80     8.41     0  01:48        1.73
  YS02001649           JUNCTION     1.20     2.05     8.44     0  01:48        1.94
  YS02001652           JUNCTION     1.03     1.94     8.54     0  01:48        1.80
  YS02001655           JUNCTION     0.82     2.03     8.88     0  01:48        1.61
  YS02001658           JUNCTION     0.60     2.13     9.27     0  01:48        1.41
  YS02001661           JUNCTION     0.41     1.41     8.82     0  01:48        1.24
  YS02001664           JUNCTION     0.08     0.90     8.82     0  01:48        0.80
  YS02001745           JUNCTION     0.29     1.65     9.17     0  01:48        0.76
  YS02001748           JUNCTION     0.63     1.93     9.01     0  01:48        1.19
  YS02001751           JUNCTION     0.78     1.97     8.85     0  01:48        1.37
  YS02001754           JUNCTION     0.99     2.07     8.67     0  01:48        1.62
  YS02001757           JUNCTION     1.28     2.18     8.44     0  01:48        1.95
  YS02001759           JUNCTION     1.20     2.18     8.54     0  01:48        1.95
  YS02001762           JUNCTION     1.17     2.15     8.55     0  01:48        1.93
  YS02001765           JUNCTION     1.13     2.10     8.55     0  01:48        1.90
  YS02001767           JUNCTION     1.11     2.02     8.51     0  01:48        1.88
  YS02001770           JUNCTION     1.11     1.95     8.44     0  01:46        1.93
  YS02001774           JUNCTION     1.17     2.00     8.42     0  01:48        1.98
  YS02001779           JUNCTION     0.94     1.68     8.37     0  01:46        1.68
  YS02001783           JUNCTION     0.56     1.87     8.01     0  01:45        1.83
  YS02001784           JUNCTION     0.60     1.81     7.88     0  01:45        1.77
  YS02001786           JUNCTION     0.59     1.73     7.76     0  01:45        1.58
  YS02001788           JUNCTION     0.59     1.71     7.68     0  01:45        1.39
  YS02001790           JUNCTION     0.82     1.82     7.47     0  01:45        1.49
  YS02001791           JUNCTION     0.91     1.61     7.08     0  01:45        1.38
  YS02001793           JUNCTION     1.38     1.97     6.81     0  01:45        1.85
  YS02001882           JUNCTION     0.39     1.83     8.55     0  01:46        1.66
  YS02001884           JUNCTION     0.48     1.92     8.53     0  01:46        1.76
  YS02001887           JUNCTION     0.56     1.91     8.45     0  01:46        1.83
  YS02001890           JUNCTION     0.58     1.81     8.32     0  01:45        1.81
  YS02001895           JUNCTION     0.36     1.60     8.34     0  01:45        1.57
  YS02001898           JUNCTION     0.37     1.63     8.36     0  01:46        1.59
  YS02001901           JUNCTION     0.48     1.73     8.34     0  01:46        1.70
  YS02001904           JUNCTION     0.46     1.67     8.30     0  01:46        1.65
  YS02001907           JUNCTION     0.77     1.96     8.25     0  01:45        1.96
  YS02001910           JUNCTION     0.57     1.96     8.47     0  01:47        1.88
  YS02001915           JUNCTION     0.39     1.91     8.63     0  01:47        1.76
  YS02001918           JUNCTION     0.23     1.81     8.88     0  01:47        1.47
  YS02001920           JUNCTION     0.31     2.14     9.15     0  01:47        1.55
  YS02001923           JUNCTION     0.17     2.03     9.29     0  01:47        1.31
  YS02001926           JUNCTION     0.20     1.90     9.35     0  01:47        1.15
  YS02001929           JUNCTION     0.11     1.78     9.47     0  01:47        0.91
  YS02006553           JUNCTION     0.77     2.06     8.35     0  01:45        2.04
  YS02006556           JUNCTION     0.74     2.14     8.45     0  01:45        2.09
  YS02006558           JUNCTION     0.79     2.21     8.48     0  01:45        2.16
  YS02006561           JUNCTION     0.23     1.46     8.12     0  01:45        1.41
  YS02163301           JUNCTION     1.19     2.02     8.54     0  02:21        2.02
  YS02163601           JUNCTION     1.28     2.08     8.48     0  02:21        2.08
  YS02164001           JUNCTION     1.22     2.10     8.56     0  02:21        2.10
  CC-1                 OUTFALL      0.00     0.00     0.00     0  00:00        0.00
  CC-2                 OUTFALL      0.00     0.00     0.00     0  00:00        0.00
  JK-1                 OUTFALL      0.00     0.00     0.00     0  00:00        0.00
  JK-2                 OUTFALL      0.00     0.00     0.00     0  00:00        0.00
  WSC                  OUTFALL      0.29     0.37     1.04     0  03:13        0.37
  CC-storage           STORAGE      1.83     2.30     7.80     0  02:18        2.30
  JK-storage           STORAGE      4.67     5.80     6.60     0  01:45        5.80
  XR-storage           STORAGE      0.30     5.00     3.00     0  00:00        4.91
  
  
  *******************
  Node Inflow Summary
  *******************
  
  -------------------------------------------------------------------------------------------------
                                  Maximum  Maximum                  Lateral       Total        Flow
                                  Lateral    Total  Time of Max      Inflow      Inflow     Balance
                                   Inflow   Inflow   Occurrence      Volume      Volume       Error
  Node                 Type           LPS      LPS  days hr:min    10^6 ltr    10^6 ltr     Percent
  -------------------------------------------------------------------------------------------------
  WS02001211           JUNCTION      7.35   389.13     0  03:38       0.212        11.1       0.348
  WS02001212           JUNCTION      0.00   390.86     0  02:16           0        11.1       0.207
  WS02001213           JUNCTION      0.00   392.60     0  02:15           0        11.1       0.238
  WS02003059           JUNCTION      0.00   395.64     0  03:40           0          11       0.328
  WS02003060           JUNCTION     16.53   816.06     0  03:10       0.476        14.5       0.148
  WS02003066           JUNCTION      0.00   411.88     0  03:13           0        3.08       0.038
  WS02003067           JUNCTION      0.00   411.87     0  03:13           0        3.08       0.130
  WS02003069           JUNCTION      0.32   816.37     0  03:14     0.00922        14.5       0.157
  WS02003072           JUNCTION      0.00   816.36     0  03:15           0        14.5       0.204
  WS02003073           JUNCTION      1.82   818.17     0  03:12      0.0524        14.5       0.219
  WS02004138           JUNCTION      0.00   380.00     0  00:00           0        10.9       0.059
  WS02004139           JUNCTION      0.32   395.52     0  00:00     0.00924        10.9       0.407
  WS02004401           JUNCTION      0.00   411.99     0  03:08           0        3.18       0.311
  WS02004402           JUNCTION      0.00   412.01     0  03:10           0        3.17       0.317
  WS02004403           JUNCTION      0.00   412.00     0  03:10           0        3.16       0.312
  WS02004404           JUNCTION      0.16   412.07     0  03:07     0.00467        3.16       0.260
  WS02004405           JUNCTION      0.04   412.11     0  03:07      0.0011        3.15       0.388
  WS02004406           JUNCTION      0.00   412.15     0  03:08           0        3.14       0.651
  WS02004407           JUNCTION      0.00   412.01     0  03:11           0        3.12       0.029
  WS02004409           JUNCTION      0.00   411.98     0  03:11           0        3.12       0.071
  WS02004410           JUNCTION      0.00   411.96     0  03:12           0        3.11       0.125
  WS02004411           JUNCTION      0.00   411.94     0  03:12           0        3.11       0.164
  WS02004412           JUNCTION      0.00   411.96     0  03:12           0         3.1       0.224
  WS02004413           JUNCTION      0.00   411.93     0  03:09           0         3.1       0.404
  WS02006109           JUNCTION      1.23   411.77     0  01:50      0.0354        3.22       0.219
  WS02006110           JUNCTION      0.00   411.80     0  01:50           0        3.22       0.192
  WS02006111           JUNCTION      0.00   423.30     0  02:01           0        3.21       0.024
  WS02006112           JUNCTION      0.00   413.63     0  03:26           0        3.21       0.545
  WS02006113           JUNCTION      0.00   411.97     0  01:50           0        3.21       0.045
  WS02006115           JUNCTION      0.00   412.17     0  03:03           0        3.19       0.194
  WS02006116           JUNCTION      0.00   412.08     0  03:03           0        3.19       0.142
  WS02006228           JUNCTION      0.00   410.53     0  01:50           0        3.19       0.073
  WS02006229           JUNCTION      0.00   410.52     0  01:50           0         3.2       0.144
  WS02006230           JUNCTION     10.28   410.65     0  01:49       0.296         3.2       0.170
  WS02006231           JUNCTION      0.00   400.54     0  01:49           0         2.9      -0.079
  WS02006232           JUNCTION      0.00   400.53     0  01:49           0        2.91       0.281
  WS02006234           JUNCTION      0.00   401.29     0  01:46           0        2.91      -0.186
  WS02006235           JUNCTION      0.00   401.97     0  01:46           0        2.92       0.238
  WS02006238           JUNCTION      0.00   401.16     0  01:47           0         2.9      -0.297
  WS02006239           JUNCTION      0.00   401.37     0  01:46           0        2.88      -0.246
  WS02006240           JUNCTION      0.00   400.80     0  01:48           0        2.88      -0.054
  WS02006242           JUNCTION      0.00   401.31     0  01:46           0        2.88       0.004
  WS02006243           JUNCTION      0.00   400.90     0  01:48           0        2.87      -0.052
  WS02006245           JUNCTION      0.00   400.99     0  01:48           0        2.88       0.372
  WS02006247           JUNCTION      0.00   400.89     0  01:48           0        2.88      -0.009
  WS02006248           JUNCTION      0.00   401.13     0  01:48           0        2.89       0.045
  WS02006249           JUNCTION      0.00   472.09     0  02:06           0         2.9       0.293
  WS02006251           JUNCTION      0.08   401.16     0  02:08     0.00222         2.9      -0.001
  WS02006252           JUNCTION      0.00   400.00     0  00:00           0        2.89      -0.046
  WS02006256           JUNCTION      0.00   300.00     0  00:00           0      0.0242      -5.780
  WSF200               JUNCTION      0.00   411.87     0  03:14           0        3.08       0.019
  YS02001580           JUNCTION      0.00   118.74     0  01:43           0     0.00436       1.289
  YS02001583           JUNCTION      0.00   195.13     0  01:44           0       0.015      -6.225
  YS02001586           JUNCTION    734.59   735.47     0  01:52        1.68        1.69       0.076
  YS02001590           JUNCTION      0.00   318.25     0  01:50           0        1.32       0.013
  YS02001593           JUNCTION      0.00   318.20     0  02:11           0        1.32      -0.007
  YS02001596           JUNCTION      0.00   318.03     0  01:50           0        1.32       0.250
  YS02001600           JUNCTION      0.00   318.22     0  02:01           0        1.31       0.585
  YS02001601           JUNCTION   1283.28  1600.96     0  01:51        2.21        3.52       0.246
  YS02001602           JUNCTION      0.00   533.57     0  01:43           0         2.2       0.405
  YS02001605           JUNCTION      0.00   532.65     0  01:43           0        2.04       0.674
  YS02001607           JUNCTION      0.00   531.31     0  01:43           0        2.02       1.045
  YS02001610           JUNCTION      0.00   694.77     0  01:52           0         2.2       1.031
  YS02001613           JUNCTION      0.00   538.95     0  01:43           0        1.73       1.375
  YS02001616           JUNCTION      0.00   543.41     0  01:43           0        1.72       1.241
  YS02001619           JUNCTION   1276.76  1276.76     0  01:52        2.61         4.1       0.505
  YS02001622           JUNCTION      0.00   957.70     0  01:49           0        3.88       0.740
  YS02001625           JUNCTION      0.00  1290.52     0  01:53           0        4.03       1.111
  YS02001629           JUNCTION      0.00   939.21     0  01:45           0        2.83       0.764
  YS02001633           JUNCTION    991.58  1428.32     0  01:45        1.68        4.24       0.747
  YS02001641           JUNCTION      0.00  1419.86     0  01:45           0        3.95       0.514
  YS02001644           JUNCTION    847.45  1845.95     0  01:46        1.38        5.31       0.480
  YS02001647           JUNCTION      0.00  1849.57     0  01:46           0        4.95       0.557
  YS02001649           JUNCTION      0.00  2141.01     0  01:46           0        6.21       0.594
  YS02001652           JUNCTION      0.00   992.61     0  01:49           0        1.33       1.704
  YS02001655           JUNCTION      0.15   989.35     0  01:49     0.00443        1.35       1.809
  YS02001658           JUNCTION      0.00   986.93     0  01:49           0        1.35       0.989
  YS02001661           JUNCTION      0.00   984.83     0  01:49           0        1.34       0.549
  YS02001664           JUNCTION    861.57   861.57     0  01:50        1.33        1.33      -0.037
  YS02001745           JUNCTION    524.99   631.47     0  01:48       0.754       0.763       0.643
  YS02001748           JUNCTION      0.04   611.24     0  01:48      0.0013       0.777       1.578
  YS02001751           JUNCTION      0.01   612.92     0  01:48    0.000317       0.783       2.971
  YS02001754           JUNCTION      0.26   614.64     0  01:48     0.00749       0.778       3.063
  YS02001757           JUNCTION      0.00  3491.42     0  01:48           0        9.31       1.019
  YS02001759           JUNCTION    765.32  1461.35     0  01:48         1.1        2.47       0.927
  YS02001762           JUNCTION      0.00   819.33     0  01:48           0        1.38       1.534
  YS02001765           JUNCTION      0.00   822.50     0  01:48           0         1.4       1.740
  YS02001767           JUNCTION      0.54   824.73     0  01:48      0.0154        1.43       2.506
  YS02001770           JUNCTION   1045.20  1045.20     0  01:50        1.62        1.64       1.926
  YS02001774           JUNCTION      0.00   448.67     0  01:46           0       0.199      14.217
  YS02001779           JUNCTION      0.01   457.60     0  01:46    0.000144       0.163       9.425
  YS02001783           JUNCTION      0.00   982.72     0  01:49           0        3.62       0.198
  YS02001784           JUNCTION      1.06   983.58     0  01:49      0.0305        3.64       0.299
  YS02001786           JUNCTION      0.06   983.22     0  01:49     0.00162        3.63       0.369
  YS02001788           JUNCTION      0.07   982.93     0  01:48     0.00204        3.62       0.374
  YS02001790           JUNCTION      0.15   983.76     0  01:48     0.00446        3.61       0.473
  YS02001791           JUNCTION      0.00   983.86     0  01:48           0         3.6       0.390
  YS02001793           JUNCTION      0.00   984.60     0  01:48           0        3.58       0.468
  YS02001882           JUNCTION      0.00    56.91     0  01:45           0      0.0126       4.497
  YS02001884           JUNCTION      0.00    86.69     0  01:44           0      0.0488       5.023
  YS02001887           JUNCTION    811.20   814.34     0  01:49        1.14        1.17       0.357
  YS02001890           JUNCTION      0.00   815.95     0  01:49           0        1.13       0.440
  YS02001895           JUNCTION      0.00   525.97     0  01:46           0        1.04       0.167
  YS02001898           JUNCTION      0.00   531.03     0  01:46           0        1.04      -0.023
  YS02001901           JUNCTION      0.00   536.09     0  01:46           0        1.04       0.307
  YS02001904           JUNCTION      0.00   535.83     0  01:46           0        1.04       0.262
  YS02001907           JUNCTION      0.00  1913.14     0  01:50           0        3.32       0.559
  YS02001910           JUNCTION      0.00  1339.50     0  01:50           0        2.28       0.320
  YS02001915           JUNCTION    857.06  1339.16     0  01:50         1.4        2.32       0.046
  YS02001918           JUNCTION      0.00   677.06     0  01:46           0       0.953      -0.004
  YS02001920           JUNCTION      2.87   663.95     0  01:46      0.0827       0.933      -0.023
  YS02001923           JUNCTION      0.04   949.19     0  01:46     0.00109       0.832      -0.211
  YS02001926           JUNCTION      0.05  1206.14     0  01:46      0.0015       0.809      -0.334
  YS02001929           JUNCTION    441.27  1015.60     0  01:47       0.787       0.793      -0.314
  YS02006553           JUNCTION      0.00   672.02     0  02:09           0        2.11       0.576
  YS02006556           JUNCTION      0.00   671.92     0  02:09           0        2.12       0.406
  YS02006558           JUNCTION   1045.13  1045.13     0  01:50        1.58        3.66       0.101
  YS02006561           JUNCTION      0.00   982.40     0  01:49           0        3.62      -0.010
  YS02163301           JUNCTION      0.00   935.67     0  01:45           0         2.8       0.833
  YS02163601           JUNCTION      0.11  1425.80     0  01:45     0.00317        3.99       0.739
  YS02164001           JUNCTION      0.00  1422.25     0  01:45           0        3.97       0.474
  CC-1                 OUTFALL       0.00   683.00     0  00:00           0       0.208       0.000
  CC-2                 OUTFALL       0.00   683.00     0  00:00           0       0.208       0.000
  JK-1                 OUTFALL       0.00  1000.00     0  00:00           0      0.0791       0.000
  JK-2                 OUTFALL       0.00  1000.00     0  00:00           0      0.0791       0.000
  WSC                  OUTFALL       0.00   818.16     0  03:13           0        14.5       0.000
  CC-storage           STORAGE       0.00  3491.86     0  01:48           0        11.4       0.375
  JK-storage           STORAGE       0.00   984.66     0  01:48           0        3.72       0.421
  XR-storage           STORAGE     200.00   200.00     0  00:00        5.76        6.36     -41.886
  
  
  **********************
  Node Surcharge Summary
  **********************
  
  Surcharging occurs when water rises above the top of the highest conduit.
  ---------------------------------------------------------------------
                                               Max. Height   Min. Depth
                                   Hours       Above Crown    Below Rim
  Node                 Type      Surcharged         Meters       Meters
  ---------------------------------------------------------------------
  WS02006109           JUNCTION        1.49          0.015        1.805
  WS02006228           JUNCTION        1.47          0.014        2.186
  WS02006229           JUNCTION        1.51          0.025        2.425
  WS02006232           JUNCTION        1.61          0.050        1.430
  WS02006235           JUNCTION        1.51          0.055        1.235
  WS02006238           JUNCTION        1.55          0.085        1.345
  WS02006239           JUNCTION        1.52          0.067        1.223
  WS02006240           JUNCTION        1.52          0.078        1.312
  WS02006242           JUNCTION        1.67          0.174        0.646
  WS02006243           JUNCTION        1.55          0.132        0.638
  WS02006245           JUNCTION        1.55          0.145        0.705
  WS02006247           JUNCTION        1.58          0.180        0.580
  WS02006248           JUNCTION        1.54          0.136        0.244
  WS02006249           JUNCTION        1.57          0.196        0.194
  WS02006252           JUNCTION        2.01          1.100        0.000
  WS02006256           JUNCTION        3.00          2.050        0.000
  YS02001580           JUNCTION        0.61          0.450        0.000
  YS02001583           JUNCTION        0.61          0.400        0.100
  YS02001586           JUNCTION        0.88          0.510        0.000
  YS02001590           JUNCTION        0.99          0.750        0.000
  YS02001593           JUNCTION        1.00          0.744        0.096
  YS02001596           JUNCTION        1.25          0.975        0.095
  YS02001600           JUNCTION        1.63          1.190        0.000
  YS02001601           JUNCTION        6.47          1.440        0.000
  YS02001602           JUNCTION        6.43          1.270        0.000
  YS02001605           JUNCTION        6.42          1.180        0.000
  YS02001607           JUNCTION        1.35          0.646        0.034
  YS02001610           JUNCTION        3.80          0.680        0.000
  YS02001613           JUNCTION        1.37          0.662        0.038
  YS02001616           JUNCTION        1.30          0.610        0.000
  YS02001619           JUNCTION        1.29          0.610        0.000
  YS02001622           JUNCTION        1.30          0.579        0.041
  YS02001625           JUNCTION        6.29          0.780        0.000
  YS02001629           JUNCTION        1.27          0.470        0.000
  YS02001633           JUNCTION        6.30          1.037        0.023
  YS02001641           JUNCTION        6.29          1.100        0.000
  YS02001644           JUNCTION        6.27          0.920        0.000
  YS02001647           JUNCTION        6.23          0.801        0.099
  YS02001649           JUNCTION        6.24          1.050        0.000
  YS02001652           JUNCTION        6.22          0.911        0.219
  YS02001655           JUNCTION        1.24          1.025        0.175
  YS02001658           JUNCTION        0.28          1.126        0.174
  YS02001661           JUNCTION        0.02          0.344        1.046
  YS02001745           JUNCTION        0.01          0.650        0.700
  YS02001748           JUNCTION        0.16          0.848        0.342
  YS02001751           JUNCTION        1.05          0.971        0.229
  YS02001754           JUNCTION        6.21          1.017        0.133
  YS02001757           JUNCTION        6.23          1.180        0.030
  YS02001759           JUNCTION        6.23          1.179        0.031
  YS02001762           JUNCTION        6.22          1.150        0.000
  YS02001765           JUNCTION        6.22          1.096        0.004
  YS02001767           JUNCTION        6.22          1.023        0.007
  YS02001770           JUNCTION        6.22          0.920        0.000
  YS02001774           JUNCTION        6.22          1.003        0.047
  YS02001779           JUNCTION        6.22          0.680        0.000
  YS02001783           JUNCTION        0.68          1.071        0.529
  YS02001784           JUNCTION        0.69          1.013        0.477
  YS02001786           JUNCTION        0.67          0.929        0.501
  YS02001788           JUNCTION        0.67          0.908        0.572
  YS02001790           JUNCTION        6.25          1.024        0.133
  YS02001791           JUNCTION        6.25          0.810        1.110
  YS02001793           JUNCTION        6.27          0.973        1.627
  YS02001882           JUNCTION        0.51          0.830        0.000
  YS02001884           JUNCTION        0.52          0.855        0.015
  YS02001887           JUNCTION        0.56          0.865        0.085
  YS02001890           JUNCTION        0.57          0.760        0.000
  YS02001895           JUNCTION        0.50          0.597        0.153
  YS02001898           JUNCTION        0.50          0.596        0.144
  YS02001901           JUNCTION        0.55          0.732        0.138
  YS02001904           JUNCTION        0.54          0.674        0.176
  YS02001907           JUNCTION        0.75          0.950        0.000
  YS02001910           JUNCTION        0.60          0.965        0.135
  YS02001915           JUNCTION        0.51          0.910        0.090
  YS02001918           JUNCTION        0.42          0.810        0.000
  YS02001920           JUNCTION        0.43          1.140        0.000
  YS02001923           JUNCTION        0.06          0.820        0.000
  YS02001926           JUNCTION        0.09          0.900        0.000
  YS02001929           JUNCTION        0.01          0.780        0.000
  YS02006553           JUNCTION        0.76          1.061        0.129
  YS02006556           JUNCTION        0.68          1.103        0.247
  YS02006558           JUNCTION        0.67          1.113        0.287
  YS02006561           JUNCTION        0.47          0.657        0.493
  YS02163301           JUNCTION        6.30          1.022        0.008
  YS02163601           JUNCTION        6.31          1.080        0.000
  YS02164001           JUNCTION        6.29          1.100        0.000
  
  
  *********************
  Node Flooding Summary
  *********************
  
  Flooding refers to all water that overflows a node, whether it ponds or not.
  --------------------------------------------------------------------------
                                                             Total   Maximum
                                 Maximum   Time of Max       Flood    Ponded
                        Hours       Rate    Occurrence      Volume     Depth
  Node                 Flooded       LPS   days hr:min    10^6 ltr    Meters
  --------------------------------------------------------------------------
  WS02006252              0.01    245.63      0  00:00       0.000     0.000
  WS02006256              0.02    293.19      0  00:00       0.005     0.000
  YS02001580              0.01     98.33      0  01:44       0.000     0.000
  YS02001586              0.50    417.67      0  01:52       0.364     0.000
  YS02001590              0.01      4.16      0  01:44       0.000     0.000
  YS02001600              0.01      5.23      0  01:44       0.000     0.000
  YS02001601              0.74   1202.98      0  01:51       1.306     0.000
  YS02001602              0.78     62.06      0  01:48       0.159     0.000
  YS02001605              0.01      0.43      0  01:42       0.000     0.000
  YS02001610              0.56    694.44      0  01:52       0.648     0.000
  YS02001616              0.01      0.88      0  01:49       0.000     0.000
  YS02001619              0.01      1.88      0  01:49       0.000     0.000
  YS02001625              0.72   1290.26      0  01:53       1.368     0.000
  YS02001629              0.10    302.70      0  01:49       0.063     0.000
  YS02001641              0.01      1.47      0  02:21       0.000     0.000
  YS02001644              0.18    907.76      0  01:49       0.330     0.000
  YS02001649              0.01    106.26      0  01:48       0.001     0.000
  YS02001762              0.01     14.49      0  01:48       0.000     0.000
  YS02001770              0.01    154.52      0  01:46       0.001     0.000
  YS02001779              0.15    445.05      0  01:50       0.144     0.000
  YS02001882              0.01      6.47      0  01:46       0.000     0.000
  YS02001890              0.15    304.96      0  01:49       0.087     0.000
  YS02001907              0.36   1912.61      0  01:50       1.206     0.000
  YS02001918              0.01    253.30      0  01:47       0.004     0.000
  YS02001920              0.01     88.04      0  01:47       0.000     0.000
  YS02001923              0.01    142.10      0  01:47       0.001     0.000
  YS02001926              0.01    134.75      0  01:47       0.001     0.000
  YS02001929              0.01    671.51      0  01:47       0.004     0.000
  YS02163601              0.01      1.14      0  02:21       0.000     0.000
  YS02164001              0.01      1.89      0  02:21       0.000     0.000
  CC-storage              1.94   1027.79      0  02:18       1.632     0.000
  JK-storage              6.24    984.43      0  01:48       3.226     0.000
  
  
  **********************
  Storage Volume Summary
  **********************
  
  ------------------------------------------------------------------------------------------------
                         Average    Avg   Evap  Exfil     Maximum    Max    Time of Max    Maximum
                          Volume   Pcnt   Pcnt   Pcnt      Volume   Pcnt     Occurrence    Outflow
  Storage Unit           1000 m³   Full   Loss   Loss     1000 m³   Full    days hr:min        LPS
  ------------------------------------------------------------------------------------------------
  CC-storage               5.112   79.8    0.0    0.0       6.410  100.0       0  02:18    1783.53
  JK-storage               0.235   80.5    0.0    0.0       0.291  100.0       0  01:45    2300.00
  XR-storage               0.036    2.5    0.0    0.0       0.600   41.7       0  00:00     380.00
  
  
  ***********************
  Outfall Loading Summary
  ***********************
  
  -----------------------------------------------------------
                         Flow       Avg       Max       Total
                         Freq      Flow      Flow      Volume
  Outfall Node           Pcnt       LPS       LPS    10^6 ltr
  -----------------------------------------------------------
  CC-1                   1.32    683.00    683.00       0.208
  CC-2                   1.32    683.00    683.00       0.208
  JK-1                   1.23    347.46   1000.00       0.079
  JK-2                   1.23    347.46   1000.00       0.079
  WSC                   99.92    562.39    818.16      14.501
  -----------------------------------------------------------
  System                21.00   2623.31   3366.35      15.076
  
  
  ********************
  Link Flow Summary
  ********************
  
  -----------------------------------------------------------------------------
                                 Maximum  Time of Max   Maximum    Max/    Max/
                                  |Flow|   Occurrence   |Veloc|    Full    Full
  Link                 Type          LPS  days hr:min     m/sec    Flow   Depth
  -----------------------------------------------------------------------------
  1                    CONDUIT    818.16     0  03:13      3.15    0.28    0.37
  WS02001211WS02001212 CONDUIT    390.86     0  02:16      0.78    0.30    0.64
  WS02001212WS02001213 CONDUIT    392.60     0  02:15      1.32    0.61    0.45
  WS02001213WS02003059 CONDUIT    395.64     0  03:40      0.85    0.65    0.75
  WS02003059WS02003060 CONDUIT    399.93     0  03:40      0.95    0.26    0.63
  WS02003060WS02003069 CONDUIT    816.05     0  03:14      1.80    0.32    0.42
  WS02003066WSF200     CONDUIT    411.87     0  03:14      2.69    0.07    0.19
  WS02003067WS02003066 CONDUIT    411.88     0  03:13      1.04    0.13    0.38
  WS02003069WS02003072 CONDUIT    816.36     0  03:15      1.55    0.39    0.47
  WS02003072WS02003073 CONDUIT    816.35     0  03:12      1.64    1.76    0.45
  WS02004138WS02004139 CONDUIT    395.20     0  00:00      3.65    0.08    0.43
  WS02004139WS02001211 CONDUIT    381.79     0  03:38      0.91    0.48    0.59
  WS02004401WS02004402 CONDUIT    412.01     0  03:10      0.99    0.49    0.77
  WS02004402WS02004403 CONDUIT    412.00     0  03:10      0.99    0.59    0.79
  WS02004403WS02004404 CONDUIT    411.91     0  03:07      0.93    0.30    0.84
  WS02004404WS02004405 CONDUIT    412.07     0  03:07      1.10    4.04    0.88
  WS02004405WS02004406 CONDUIT    412.15     0  03:08      1.03    0.81    0.88
  WS02004406WS02004407 CONDUIT    412.01     0  03:11      0.89    0.18    0.57
  WS02004407WS02004409 CONDUIT    411.98     0  03:11      1.42    0.15    0.42
  WS02004409WS02004410 CONDUIT    411.96     0  03:12      0.92    0.53    0.58
  WS02004410WS02004411 CONDUIT    411.94     0  03:12      0.85    0.56    0.60
  WS02004411WS02004412 CONDUIT    411.96     0  03:12      0.81    0.59    0.61
  WS02004412WS02004413 CONDUIT    411.93     0  03:09      0.70    0.28    0.70
  WS02004413WS02003067 CONDUIT    411.87     0  03:13      0.96    0.18    0.53
  WS02006109WS02006110 CONDUIT    411.80     0  01:50      0.84    0.79    0.94
  WS02006110WS02006113 CONDUIT    411.97     0  01:50      1.03    0.37    0.75
  WS02006111WS02006112 CONDUIT    413.63     0  03:26      1.83    0.20    0.65
  WS02006112WS02006115 CONDUIT    412.17     0  03:03      0.71    0.24    0.78
  WS02006113WS02006111 CONDUIT    423.30     0  02:01      2.25    0.51    0.40
  WS02006115WS02006116 CONDUIT    412.08     0  03:03      0.98    0.53    0.66
  WS02006116WS02004401 CONDUIT    411.99     0  03:08      1.00    0.57    0.74
  WS02006228WS02006109 CONDUIT    410.54     0  01:50      1.06    1.79    1.00
  WS02006229WS02006228 CONDUIT    410.53     0  01:50      1.13    1.36    1.00
  WS02006230WS02006229 CONDUIT    410.52     0  01:50      1.22    9.14    1.00
  WS02006231WS02006230 CONDUIT    400.37     0  01:49      1.37    6.07    0.77
  WS02006232WS02006231 CONDUIT    400.54     0  01:49      1.08    0.84    0.92
  WS02006234WS02006232 CONDUIT    400.53     0  01:49      1.40    0.81    1.00
  WS02006235WS02006234 CONDUIT    401.29     0  01:46      1.29    4.23    0.99
  WS02006238WS02006235 CONDUIT    401.97     0  01:46      1.50    0.90    1.00
  WS02006239WS02006238 CONDUIT    401.16     0  01:47      1.22    1.28    1.00
  WS02006240WS02006239 CONDUIT    401.37     0  01:46      1.32    1.26    1.00
  WS02006242WS02006240 CONDUIT    400.80     0  01:48      1.19    1.59    1.00
  WS02006243WS02006242 CONDUIT    401.31     0  01:46      1.41    0.86    1.00
  WS02006245WS02006243 CONDUIT    400.90     0  01:48      1.45    1.19    1.00
  WS02006247WS02006245 CONDUIT    400.99     0  01:48      1.43    3.18    1.00
  WS02006248WS02006247 CONDUIT    400.89     0  01:48      1.44    0.87    1.00
  WS02006249WS02006248 CONDUIT    401.13     0  01:48      1.39    2.20    1.00
  WS02006251WS02006249 CONDUIT    472.09     0  02:06      1.99    1.36    1.00
  WS02006252WS02006251 CONDUIT    401.08     0  02:08     24.55    1.47    1.00
  WS02006256WS02006235 CONDUIT    288.91     0  00:00      4.23    3.06    1.00
  WSF200WS02003060     CONDUIT    411.88     0  03:14      1.43    0.09    0.30
  YS02001580YS02001583 CONDUIT    118.74     0  01:43      0.75    0.46    1.00
  YS02001583YS02001586 CONDUIT    183.31     0  01:44      0.80    0.28    1.00
  YS02001586YS02001590 CONDUIT    318.25     0  01:50      1.27    0.56    1.00
  YS02001590YS02001593 CONDUIT    318.20     0  02:11      1.13    2.00    1.00
  YS02001593YS02001596 CONDUIT    318.03     0  01:50      1.62    0.50    1.00
  YS02001596YS02001600 CONDUIT    318.22     0  02:01      1.13    0.62    1.00
  YS02001600YS02001601 CONDUIT    317.96     0  02:11      1.12    0.55    1.00
  YS02001601YS02001602 CONDUIT    533.57     0  01:43      1.89    1.93    1.00
  YS02001602YS02001605 CONDUIT    532.65     0  01:43      1.88   11.27    1.00
  YS02001605YS02001607 CONDUIT    531.31     0  01:43      1.88    2.91    1.00
  YS02001607YS02001610 CONDUIT    534.27     0  01:43      0.68    0.51    1.00
  YS02001610YS02001613 CONDUIT    538.95     0  01:43      0.69    0.62    1.00
  YS02001613YS02001616 CONDUIT    543.41     0  01:43      0.69    0.47    1.00
  YS02001616YS02001619 CONDUIT    519.75     0  01:43      0.67    0.90    1.00
  YS02001619YS02001622 CONDUIT    957.70     0  01:49      1.22    1.41    1.00
  YS02001622YS02001625 CONDUIT    959.13     0  01:49      1.22    0.51    1.00
  YS02001625YS02001629 CONDUIT    939.21     0  01:45      1.20    0.45    1.00
  YS02001629YS02163301 CONDUIT    935.67     0  01:45      1.19    1.15    1.00
  YS02001633YS02163601 CONDUIT   1425.69     0  01:45      1.82    1.50    1.00
  YS02001641YS02001644 CONDUIT   1419.09     0  01:45      1.81    4.59    1.00
  YS02001644YS02001647 CONDUIT   1849.57     0  01:46      2.39    1.09    1.00
  YS02001647YS02001649 CONDUIT   1859.66     0  01:46      2.39    0.98    1.00
  YS02001649YS02001757 CONDUIT   2149.73     0  01:46      2.74    1.30    1.00
  YS02001652YS02001649 CONDUIT    994.52     0  01:49      1.27    0.49    1.00
  YS02001655YS02001652 CONDUIT    992.61     0  01:49      1.38    0.48    1.00
  YS02001658YS02001655 CONDUIT    989.19     0  01:49      1.95    0.42    1.00
  YS02001661YS02001658 CONDUIT    986.93     0  01:49      2.37    0.39    1.00
  YS02001664YS02001661 CONDUIT    984.83     0  01:49      2.47    0.31    0.95
  YS02001745YS02001748 CONDUIT    611.20     0  01:48      2.25    0.24    1.00
  YS02001748YS02001751 CONDUIT    612.91     0  01:48      1.73    0.31    1.00
  YS02001751YS02001754 CONDUIT    614.38     0  01:48      1.44    0.30    1.00
  YS02001754YS02001757 CONDUIT    620.01     0  01:48      0.79    0.25    1.00
  YS02001757CaochengTiaoxuchi CONDUIT   3491.86     0  01:48      4.45    1.51    1.00
  YS02001759YS02001757 CONDUIT   1461.82     0  01:48      1.86    1.04    1.00
  YS02001762YS02001759 CONDUIT    820.68     0  01:48      1.04    0.95    1.00
  YS02001765YS02001762 CONDUIT    819.33     0  01:48      1.04    0.77    1.00
  YS02001767YS02001765 CONDUIT    822.50     0  01:48      1.05    1.03    1.00
  YS02001770YS02001767 CONDUIT    824.19     0  01:48      1.05    3.26    1.00
  YS02001774YS02001770 CONDUIT    448.67     0  01:46      0.57    0.29    1.00
  YS02001779YS02001774 CONDUIT    457.59     0  01:46      0.59    0.23    1.00
  YS02001783YS02001784 CONDUIT    982.52     0  01:49      1.95    1.35    1.00
  YS02001784YS02001785 CONDUIT    983.16     0  01:49      1.96    2.29    1.00
  YS02001786YS02001788 CONDUIT    982.86     0  01:48      2.25    1.89    1.00
  YS02001788YS02001790 CONDUIT    983.61     0  01:48      2.33    0.72    1.00
  YS02001790YS02001791 CONDUIT    983.86     0  01:48      2.82    1.07    1.00
  YS02001791YS02001793 CONDUIT    984.60     0  01:48      5.41    0.42    1.00
  YS02001793JiankangQianchi CONDUIT    984.66     0  01:48      1.54    0.08    1.00
  YS02001882YS02001884 CONDUIT     56.91     0  01:45      0.15    0.07    1.00
  YS02001884YS02001887 CONDUIT     86.69     0  01:44      0.12    0.12    1.00
  YS02001887YS02001890 CONDUIT    815.95     0  01:49      1.04    1.40    1.00
  YS02001890YS02001895 CONDUIT    525.97     0  01:46      0.67    0.25    1.00
  YS02001895YS02001898 CONDUIT    531.03     0  01:46      0.68    0.92    1.00
  YS02001898YS02001901 CONDUIT    536.09     0  01:46      0.68    0.35    1.00
  YS02001901YS02001904 CONDUIT    535.83     0  01:46      0.68    0.83    1.00
  YS02001904YS02001907 CONDUIT    533.83     0  01:46      0.68    0.19    1.00
  YS02001907YS02006553 CONDUIT    672.02     0  02:09      0.75    0.79    1.00
  YS02001910YS02001907 CONDUIT   1339.72     0  01:50      1.71    0.76    1.00
  YS02001915YS02001910 CONDUIT   1339.50     0  01:50      1.71    0.67    1.00
  YS02001918YS02001915 CONDUIT    677.06     0  01:46      0.87    0.37    1.00
  YS02001920YS02001918 CONDUIT    661.08     0  01:46      0.84    0.64    1.00
  YS02001923YS02001920 CONDUIT    676.40     0  01:46      0.91    0.30    1.00
  YS02001926YS02001923 CONDUIT    970.88     0  01:46      1.46    1.39    1.00
  YS02001929YS02001926 CONDUIT    747.71     0  01:47      1.23    0.36    1.00
  YS02006553YS02006556 CONDUIT    671.92     0  02:09      0.86    0.57    1.00
  YS02006556YS02006558 CONDUIT    673.90     0  02:09      0.86    0.53    1.00
  YS02006558YS02006561 CONDUIT    982.40     0  01:49      3.63    2.17    1.00
  YS02006561YS02001783 CONDUIT    982.72     0  01:49      2.16    0.51    1.00
  YS02163301YS02001633 CONDUIT    934.61     0  01:45      1.19    0.88    1.00
  YS02163601YS02164001 CONDUIT   1422.25     0  01:45      1.81    1.26    1.00
  YS02164001YS02001641 CONDUIT   1419.86     0  01:45      1.81    1.94    1.00
  CC-R1                PUMP       683.00     0  00:00              1.00
  CC-R2                PUMP       683.00     0  00:00              1.00
  CC-S1                PUMP       200.00     0  00:00              1.00
  CC-S2                PUMP       200.00     0  00:00              1.00
  JK-R1                PUMP      1000.00     0  00:00              1.00
  JK-R2                PUMP      1000.00     0  00:00              1.00
  JK-S                 PUMP       300.00     0  00:00              1.00
  XR-1                 PUMP        95.00     0  00:00              1.00
  XR-2                 PUMP        95.00     0  00:00              1.00
  XR-3                 PUMP        95.00     0  00:00              1.00
  XR-4                 PUMP        95.00     0  00:00              1.00
  
  
  ***************************
  Flow Classification Summary
  ***************************
  
  -------------------------------------------------------------------------------------
                      Adjusted    ---------- Fraction of Time in Flow Class ---------- 
                       /Actual         Up    Down  Sub   Sup   Up    Down  Norm  Inlet 
  Conduit               Length    Dry  Dry   Dry   Crit  Crit  Crit  Crit  Ltd   Ctrl  
  -------------------------------------------------------------------------------------
  1                       1.00   0.00  0.00  0.00  0.00  1.00  0.00  0.00  0.20  0.00
  WS02001211WS02001212    1.00   0.00  0.00  0.00  1.00  0.00  0.00  0.00  0.00  0.00
  WS02001212WS02001213    1.00   0.00  0.00  0.00  0.36  0.00  0.64  0.00  0.00  0.00
  WS02001213WS02003059    1.00   0.00  0.00  0.00  0.99  0.00  0.00  0.00  0.00  0.00
  WS02003059WS02003060    1.00   0.00  0.00  0.00  1.00  0.00  0.00  0.00  0.00  0.00
  WS02003060WS02003069    1.00   0.00  0.00  0.00  0.99  0.01  0.00  0.00  0.00  0.00
  WS02003066WSF200        1.00   0.02  0.10  0.00  0.00  0.88  0.00  0.00  0.86  0.00
  WS02003067WS02003066    1.00   0.10  0.02  0.00  0.89  0.00  0.00  0.00  0.00  0.00
  WS02003069WS02003072    1.00   0.00  0.00  0.00  0.99  0.01  0.00  0.00  0.00  0.00
  WS02003072WS02003073    1.00   0.00  0.00  0.00  0.00  0.00  0.00  1.00  0.00  0.00
  WS02004138WS02004139    1.00   0.00  0.00  0.00  0.99  0.01  0.00  0.00  1.00  0.00
  WS02004139WS02001211    1.00   0.00  0.00  0.00  1.00  0.00  0.00  0.00  0.00  0.00
  WS02004401WS02004402    1.00   0.02  0.00  0.00  0.98  0.00  0.00  0.00  0.00  0.00
  WS02004402WS02004403    1.00   0.02  0.00  0.00  0.98  0.00  0.00  0.00  0.00  0.00
  WS02004403WS02004404    1.00   0.00  0.03  0.00  0.97  0.00  0.00  0.00  0.00  0.00
  WS02004404WS02004405    1.00   0.00  0.00  0.00  1.00  0.00  0.00  0.00  0.00  0.00
  WS02004405WS02004406    1.00   0.00  0.00  0.00  1.00  0.00  0.00  0.00  0.00  0.00
  WS02004406WS02004407    1.00   0.00  0.05  0.00  0.95  0.00  0.00  0.00  0.00  0.00
  WS02004407WS02004409    1.00   0.05  0.00  0.00  0.94  0.01  0.00  0.00  0.94  0.00
  WS02004409WS02004410    1.00   0.05  0.00  0.00  0.95  0.00  0.00  0.00  0.02  0.00
  WS02004410WS02004411    1.00   0.05  0.00  0.00  0.95  0.00  0.00  0.00  0.00  0.00
  WS02004411WS02004412    1.00   0.05  0.00  0.00  0.95  0.00  0.00  0.00  0.00  0.00
  WS02004412WS02004413    1.00   0.05  0.00  0.00  0.94  0.00  0.00  0.00  0.01  0.00
  WS02004413WS02003067    1.00   0.06  0.04  0.00  0.00  0.00  0.90  0.00  0.00  0.00
  WS02006109WS02006110    1.00   0.00  0.01  0.00  0.98  0.00  0.01  0.00  0.00  0.00
  WS02006110WS02006113    1.00   0.01  0.01  0.00  0.98  0.00  0.00  0.00  0.00  0.00
  WS02006111WS02006112    1.00   0.02  0.00  0.00  0.98  0.00  0.00  0.00  0.98  0.00
  WS02006112WS02006115    1.00   0.02  0.00  0.00  0.97  0.00  0.00  0.00  0.00  0.00
  WS02006113WS02006111    1.00   0.02  0.00  0.00  0.00  0.98  0.00  0.00  0.11  0.00
  WS02006115WS02006116    1.00   0.02  0.00  0.00  0.97  0.00  0.00  0.01  0.00  0.00
  WS02006116WS02004401    1.00   0.02  0.00  0.00  0.98  0.00  0.00  0.00  0.00  0.00
  WS02006228WS02006109    1.00   0.00  0.00  0.00  1.00  0.00  0.00  0.00  0.00  0.00
  WS02006229WS02006228    1.00   0.00  0.00  0.00  0.99  0.00  0.00  0.01  0.00  0.00
  WS02006230WS02006229    1.00   0.00  0.00  0.00  0.99  0.00  0.00  0.01  0.00  0.00
  WS02006231WS02006230    1.00   0.00  0.00  0.00  0.22  0.00  0.78  0.00  0.00  0.00
  WS02006232WS02006231    1.00   0.00  0.00  0.00  0.99  0.00  0.01  0.00  0.00  0.00
  WS02006234WS02006232    1.00   0.00  0.00  0.00  1.00  0.00  0.00  0.00  0.53  0.00
  WS02006235WS02006234    1.00   0.00  0.00  0.00  0.43  0.00  0.57  0.00  0.00  0.00
  WS02006238WS02006235    1.00   0.00  0.00  0.00  1.00  0.00  0.00  0.00  0.00  0.00
  WS02006239WS02006238    1.00   0.00  0.00  0.00  1.00  0.00  0.00  0.00  0.62  0.00
  WS02006240WS02006239    1.00   0.00  0.00  0.00  0.34  0.00  0.00  0.66  0.01  0.00
  WS02006242WS02006240    1.00   0.00  0.00  0.00  0.99  0.00  0.01  0.00  0.00  0.00
  WS02006243WS02006242    1.00   0.00  0.00  0.00  0.99  0.00  0.00  0.01  0.71  0.00
  WS02006245WS02006243    1.00   0.00  0.00  0.00  0.39  0.00  0.00  0.61  0.00  0.00
  WS02006247WS02006245    1.00   0.00  0.00  0.00  0.99  0.00  0.00  0.01  0.00  0.00
  WS02006248WS02006247    1.00   0.00  0.00  0.00  0.99  0.00  0.00  0.01  0.12  0.00
  WS02006249WS02006248    1.00   0.00  0.00  0.00  0.29  0.00  0.71  0.00  0.00  0.00
  WS02006251WS02006249    1.00   0.00  0.00  0.00  1.00  0.00  0.00  0.00  0.72  0.00
  WS02006252WS02006251    1.00   0.00  0.75  0.00  0.00  0.00  0.25  0.00  0.00  0.00
  WS02006256WS02006235    1.00   0.00  0.00  0.00  1.00  0.00  0.00  0.00  0.00  0.00
  WSF200WS02003060        1.00   0.00  0.02  0.00  0.98  0.00  0.00  0.00  0.70  0.00
  YS02001580YS02001583    1.00   0.21  0.57  0.00  0.21  0.00  0.00  0.00  0.66  0.00
  YS02001583YS02001586    1.00   0.48  0.25  0.00  0.27  0.00  0.00  0.00  0.67  0.00
  YS02001586YS02001590    1.00   0.13  0.00  0.00  0.40  0.04  0.00  0.44  0.30  0.00
  YS02001590YS02001593    1.00   0.13  0.01  0.00  0.17  0.00  0.70  0.00  0.00  0.00
  YS02001593YS02001596    1.00   0.13  0.00  0.00  0.80  0.00  0.00  0.07  0.63  0.00
  YS02001596YS02001600    1.00   0.13  0.00  0.00  0.82  0.00  0.00  0.04  0.01  0.00
  YS02001600YS02001601    1.00   0.13  0.01  0.00  0.86  0.00  0.00  0.00  0.03  0.00
  YS02001601YS02001602    1.00   0.13  0.01  0.00  0.87  0.00  0.00  0.00  0.00  0.00
  YS02001602YS02001605    1.00   0.13  0.00  0.00  0.87  0.00  0.00  0.00  0.00  0.00
  YS02001605YS02001607    1.00   0.14  0.00  0.00  0.86  0.00  0.00  0.00  0.00  0.00
  YS02001607YS02001610    1.00   0.13  0.01  0.00  0.86  0.00  0.00  0.00  0.01  0.00
  YS02001610YS02001613    1.00   0.13  0.00  0.00  0.87  0.00  0.00  0.00  0.00  0.00
  YS02001613YS02001616    1.00   0.13  0.00  0.00  0.87  0.00  0.00  0.00  0.00  0.00
  YS02001616YS02001619    1.00   0.13  0.00  0.00  0.87  0.00  0.00  0.00  0.00  0.00
  YS02001619YS02001622    1.00   0.13  0.00  0.00  0.87  0.00  0.00  0.00  0.00  0.00
  YS02001622YS02001625    1.00   0.13  0.00  0.00  0.87  0.00  0.00  0.00  0.03  0.00
  YS02001625YS02001629    1.00   0.13  0.04  0.00  0.80  0.00  0.03  0.00  0.00  0.00
  YS02001629YS02163301    1.00   0.15  0.01  0.00  0.84  0.00  0.00  0.00  0.00  0.00
  YS02001633YS02163601    1.00   0.00  0.01  0.00  0.99  0.00  0.00  0.00  0.14  0.00
  YS02001641YS02001644    1.00   0.00  0.01  0.00  0.99  0.00  0.00  0.00  0.00  0.00
  YS02001644YS02001647    1.00   0.00  0.16  0.00  0.84  0.00  0.00  0.00  0.00  0.00
  YS02001647YS02001649    1.00   0.00  0.16  0.00  0.83  0.01  0.00  0.00  0.01  0.00
  YS02001649YS02001757    1.00   0.00  0.00  0.00  0.98  0.02  0.00  0.00  0.17  0.00
  YS02001652YS02001649    1.00   0.00  0.00  0.00  0.97  0.03  0.00  0.00  0.15  0.00
  YS02001655YS02001652    1.00   0.00  0.00  0.00  0.80  0.01  0.00  0.20  0.01  0.00
  YS02001658YS02001655    1.00   0.00  0.14  0.00  0.78  0.08  0.00  0.00  0.01  0.00
  YS02001661YS02001658    1.00   0.14  0.00  0.00  0.78  0.08  0.00  0.00  0.00  0.00
  YS02001664YS02001661    1.00   0.13  0.00  0.00  0.83  0.04  0.00  0.00  0.83  0.00
  YS02001745YS02001748    1.00   0.00  0.00  0.00  0.78  0.00  0.00  0.22  0.00  0.00
  YS02001748YS02001751    1.00   0.00  0.00  0.00  0.91  0.09  0.00  0.00  0.12  0.00
  YS02001751YS02001754    1.00   0.00  0.00  0.00  0.79  0.00  0.00  0.21  0.00  0.00
  YS02001754YS02001757    1.00   0.00  0.00  0.00  1.00  0.00  0.00  0.00  0.21  0.00
  YS02001757CaochengTiaoxuchi    1.00   0.00  0.00  0.00  0.99  0.01  0.00  0.00  0.20  0.00
  YS02001759YS02001757    1.00   0.00  0.00  0.00  0.99  0.01  0.00  0.00  0.06  0.00
  YS02001762YS02001759    1.00   0.00  0.00  0.00  1.00  0.00  0.00  0.00  0.03  0.00
  YS02001765YS02001762    1.00   0.00  0.00  0.00  1.00  0.00  0.00  0.00  0.13  0.00
  YS02001767YS02001765    1.00   0.00  0.00  0.00  1.00  0.00  0.00  0.00  0.00  0.00
  YS02001770YS02001767    1.00   0.00  0.00  0.00  1.00  0.00  0.00  0.00  0.00  0.00
  YS02001774YS02001770    1.00   0.00  0.13  0.00  0.87  0.00  0.00  0.00  0.02  0.00
  YS02001779YS02001774    1.00   0.00  0.00  0.00  1.00  0.00  0.00  0.00  0.16  0.00
  YS02001783YS02001784    1.00   0.00  0.17  0.00  0.83  0.00  0.00  0.00  0.00  0.00
  YS02001784YS02001785    1.00   0.00  0.00  0.00  1.00  0.00  0.00  0.00  0.16  0.00
  YS02001786YS02001788    1.00   0.00  0.00  0.00  0.96  0.04  0.00  0.00  0.00  0.00
  YS02001788YS02001790    1.00   0.00  0.00  0.00  0.96  0.04  0.00  0.00  0.18  0.00
  YS02001790YS02001791    1.00   0.00  0.00  0.00  0.80  0.20  0.00  0.00  0.03  0.00
  YS02001791YS02001793    1.00   0.00  0.00  0.00  0.78  0.21  0.00  0.00  0.00  0.00
  YS02001793JiankangQianchi    1.00   0.00  0.00  0.00  0.93  0.07  0.00  0.00  0.19  0.00
  YS02001882YS02001884    1.00   0.15  0.01  0.00  0.85  0.00  0.00  0.00  0.00  0.00
  YS02001884YS02001887    1.00   0.06  0.05  0.00  0.89  0.00  0.00  0.00  0.00  0.00
  YS02001887YS02001890    1.00   0.00  0.00  0.00  0.97  0.00  0.03  0.00  0.00  0.00
  YS02001890YS02001895    1.00   0.00  0.15  0.00  0.84  0.00  0.00  0.00  0.00  0.00
  YS02001895YS02001898    1.00   0.16  0.00  0.00  0.83  0.00  0.02  0.00  0.00  0.00
  YS02001898YS02001901    1.00   0.16  0.00  0.00  0.84  0.00  0.00  0.00  0.01  0.00
  YS02001901YS02001904    1.00   0.16  0.00  0.00  0.84  0.00  0.00  0.00  0.00  0.00
  YS02001904YS02001907    1.00   0.00  0.16  0.00  0.84  0.00  0.00  0.00  0.00  0.00
  YS02001907YS02006553    1.00   0.00  0.02  0.00  0.98  0.00  0.00  0.00  0.00  0.00
  YS02001910YS02001907    1.00   0.00  0.00  0.00  0.97  0.00  0.00  0.03  0.12  0.00
  YS02001915YS02001910    1.00   0.00  0.00  0.00  0.97  0.03  0.00  0.00  0.14  0.00
  YS02001918YS02001915    1.00   0.00  0.01  0.00  0.98  0.02  0.00  0.00  0.76  0.00
  YS02001920YS02001918    1.00   0.00  0.01  0.00  0.99  0.00  0.00  0.00  0.00  0.00
  YS02001923YS02001920    1.00   0.00  0.00  0.00  1.00  0.00  0.00  0.00  0.92  0.00
  YS02001926YS02001923    1.00   0.00  0.07  0.00  0.07  0.00  0.86  0.00  0.00  0.00
  YS02001929YS02001926    1.00   0.00  0.13  0.00  0.87  0.00  0.00  0.00  0.82  0.00
  YS02006553YS02006556    1.00   0.01  0.00  0.00  0.99  0.00  0.00  0.00  0.03  0.00
  YS02006556YS02006558    1.00   0.00  0.00  0.00  1.00  0.00  0.00  0.00  0.00  0.00
  YS02006558YS02006561    1.00   0.17  0.00  0.00  0.08  0.75  0.00  0.00  0.18  0.00
  YS02006561YS02001783    1.00   0.17  0.00  0.00  0.79  0.04  0.00  0.00  0.72  0.00
  YS02163301YS02001633    1.00   0.00  0.15  0.00  0.85  0.00  0.00  0.00  0.00  0.00
  YS02163601YS02164001    1.00   0.00  0.08  0.00  0.92  0.00  0.00  0.00  0.00  0.00
  YS02164001YS02001641    1.00   0.01  0.07  0.00  0.92  0.00  0.00  0.00  0.05  0.00
  
  
  *************************
  Conduit Surcharge Summary
  *************************
  
  ----------------------------------------------------------------------------
                                                           Hours        Hours 
                         --------- Hours Full --------   Above Full   Capacity
  Conduit                Both Ends  Upstream  Dnstream   Normal Flow   Limited
  ----------------------------------------------------------------------------
  WS02003072WS02003073        0.01      0.01      0.01      2.31         0.01
  WS02004404WS02004405        0.01      0.01      0.01      2.16         0.01
  WS02006109WS02006110        0.01      0.01      1.60      0.01         0.01
  WS02006110WS02006113        0.01      0.01      1.55      0.01         0.01
  WS02006111WS02006112        0.01      0.01      1.77      0.01         0.01
  WS02006228WS02006109        1.49      1.60      1.49      1.91         1.49
  WS02006229WS02006228        1.47      1.51      1.47      1.80         1.47
  WS02006230WS02006229        1.70      1.76      1.70      2.43         1.70
  WS02006231WS02006230        0.01      0.01      0.01      2.28         0.01
  WS02006232WS02006231        0.01      0.01      1.61      0.01         0.01
  WS02006234WS02006232        1.43      1.43      1.61      0.01         0.01
  WS02006235WS02006234        0.01      0.01      1.51      2.20         0.01
  WS02006238WS02006235        1.53      1.53      1.63      0.01         0.01
  WS02006239WS02006238        1.55      1.61      1.55      1.84         1.55
  WS02006240WS02006239        1.52      1.54      1.52      1.86         1.52
  WS02006242WS02006240        1.52      1.52      1.72      1.93         0.01
  WS02006243WS02006242        1.56      1.56      1.67      0.01         0.01
  WS02006245WS02006243        1.55      1.56      1.55      1.91         1.54
  WS02006247WS02006245        1.55      1.60      1.55      2.01         1.55
  WS02006248WS02006247        1.56      1.56      1.58      0.01         0.01
  WS02006249WS02006248        1.54      1.54      1.57      2.00         0.01
  WS02006251WS02006249        1.57      1.59      1.57      1.98         1.57
  WS02006252WS02006251        2.01      2.01      2.01      2.01         0.01
  WS02006256WS02006235        2.24      2.24      3.00      0.02         0.01
  YS02001580YS02001583        0.61      0.61      0.67      0.01         0.01
  YS02001583YS02001586        0.61      0.61      0.88      0.01         0.01
  YS02001586YS02001590        0.89      0.89      0.99      0.01         0.01
  YS02001590YS02001593        1.00      1.00      1.02      0.95         0.01
  YS02001593YS02001596        1.01      1.01      1.25      0.01         0.01
  YS02001596YS02001600        1.38      1.38      1.63      0.01         0.01
  YS02001600YS02001601        6.35      6.35      6.47      0.01         0.01
  YS02001601YS02001602        6.43      6.43      6.48      1.13         0.01
  YS02001602YS02001605        6.42      6.42      6.43      2.18         0.11
  YS02001605YS02001607        6.39      6.42      6.39      1.49         1.40
  YS02001607YS02001610        1.35      1.35      3.79      0.01         0.01
  YS02001610YS02001613        1.37      1.37      3.79      0.01         0.01
  YS02001613YS02001616        1.30      1.30      1.37      0.01         0.01
  YS02001616YS02001619        1.29      1.29      1.30      0.01         0.02
  YS02001619YS02001622        1.29      1.29      1.30      0.68         0.62
  YS02001622YS02001625        1.30      1.30      6.29      0.01         0.01
  YS02001625YS02001629        1.27      1.27      6.29      0.01         0.01
  YS02001629YS02163301        6.30      6.30      6.30      0.04         0.03
  YS02001633YS02163601        6.30      6.30      6.31      0.07         0.07
  YS02001641YS02001644        6.27      6.29      6.27      1.50         1.36
  YS02001644YS02001647        6.23      6.23      6.27      0.04         0.01
  YS02001647YS02001649        6.23      6.23      6.24      0.01         0.01
  YS02001649YS02001757        6.23      6.24      6.23      0.06         0.03
  YS02001652YS02001649        6.22      6.22      6.24      0.01         0.01
  YS02001655YS02001652        1.24      1.24      6.22      0.01         0.01
  YS02001658YS02001655        0.28      0.28      1.24      0.01         0.01
  YS02001661YS02001658        0.02      0.02      0.28      0.01         0.01
  YS02001664YS02001661        0.01      0.01      0.07      0.01         0.01
  YS02001745YS02001748        0.01      0.01      0.15      0.01         0.01
  YS02001748YS02001751        0.24      0.24      1.05      0.01         0.01
  YS02001751YS02001754        1.05      1.05      6.21      0.01         0.01
  YS02001754YS02001757        6.22      6.22      6.23      0.01         0.01
  YS02001757CaochengTiaoxuchi        6.19      6.23      6.19      0.29         0.23
  YS02001759YS02001757        6.23      6.23      6.23      0.01         0.03
  YS02001762YS02001759        6.22      6.22      6.23      0.01         0.02
  YS02001765YS02001762        6.22      6.22      6.22      0.01         0.01
  YS02001767YS02001765        6.22      6.22      6.22      0.01         0.02
  YS02001770YS02001767        6.22      6.22      6.22      0.50         0.49
  YS02001774YS02001770        6.22      6.22      6.22      0.01         0.01
  YS02001779YS02001774        6.22      6.22      6.22      0.01         0.01
  YS02001783YS02001784        0.67      0.68      0.69      0.64         0.59
  YS02001784YS02001785        0.67      0.69      0.67      0.89         0.67
  YS02001786YS02001788        0.67      0.67      0.67      0.78         0.67
  YS02001788YS02001790        0.67      0.67      6.25      0.01         0.01
  YS02001790YS02001791        6.25      6.25      6.25      0.40         0.41
  YS02001791YS02001793        6.25      6.25      6.27      0.01         0.01
  YS02001793JiankangQianchi        6.27      6.27      6.43      0.01         0.01
  YS02001882YS02001884        0.51      0.51      0.52      0.01         0.01
  YS02001884YS02001887        0.55      0.55      0.56      0.01         0.01
  YS02001887YS02001890        0.57      0.57      0.58      0.11         0.01
  YS02001890YS02001895        0.50      0.50      0.60      0.01         0.01
  YS02001895YS02001898        0.50      0.50      0.50      0.01         0.01
  YS02001898YS02001901        0.50      0.50      0.55      0.01         0.01
  YS02001901YS02001904        0.54      0.54      0.55      0.01         0.01
  YS02001904YS02001907        0.54      0.54      0.77      0.01         0.01
  YS02001907YS02006553        0.90      0.90      0.97      0.01         0.01
  YS02001910YS02001907        0.60      0.60      0.75      0.01         0.01
  YS02001915YS02001910        0.51      0.51      0.60      0.01         0.01
  YS02001918YS02001915        0.42      0.42      0.51      0.01         0.01
  YS02001920YS02001918        0.42      0.42      0.43      0.01         0.01
  YS02001923YS02001920        0.37      0.37      0.43      0.01         0.01
  YS02001926YS02001923        0.06      0.06      0.09      0.01         0.01
  YS02001929YS02001926        0.01      0.01      0.09      0.01         0.01
  YS02006553YS02006556        0.68      0.68      0.76      0.01         0.01
  YS02006556YS02006558        0.71      0.71      0.78      0.01         0.01
  YS02006558YS02006561        0.54      0.67      0.54      0.84         0.54
  YS02006561YS02001783        0.47      0.47      0.68      0.01         0.01
  YS02163301YS02001633        6.30      6.30      6.31      0.01         0.01
  YS02163601YS02164001        6.29      6.29      6.31      0.05         0.01
  YS02164001YS02001641        6.29      6.29      6.29      0.44         0.38
  
  
  ***************
  Pumping Summary
  ***************
  
  ---------------------------------------------------------------------------------------------------------
                                                  Min       Avg       Max     Total     Power    % Time Off
                        Percent   Number of      Flow      Flow      Flow    Volume     Usage    Pump Curve
  Pump                 Utilized   Start-Ups       LPS       LPS       LPS  10^6 ltr     Kw-hr    Low   High
  ---------------------------------------------------------------------------------------------------------
  CC-R1                    1.06           1      0.00    683.00    683.00     0.208      3.51    0.0  100.0
  CC-R2                    1.06           1      0.00    683.00    683.00     0.208      3.51    0.0  100.0
  CC-S1                   25.10           3      0.00    200.00    200.00     1.446      5.96    0.0   65.0
  CC-S2                   25.10           3      0.00    200.00    200.00     1.446      5.96    0.0   65.0
  JK-R1                    0.97           2      0.00    347.46   1000.00     0.078      0.47    0.0    0.0
  JK-R2                    0.97           2      0.00    347.46   1000.00     0.078      0.47    0.0    0.0
  JK-S                     0.97           2      0.00    104.30    300.00     0.023      0.44    0.0    0.0
  XR-1                   100.00           1      0.00     95.00     95.00     2.736     68.18    0.0    0.0
  XR-2                   100.00           1      0.00     95.00     95.00     2.736     68.18    0.0    0.0
  XR-3                   100.00           1      0.00     95.00     95.00     2.736     68.18    0.0    0.0
  XR-4                   100.00           1      0.00     95.00     95.00     2.736     68.18    0.0    0.0
  

  Analysis begun on:  Wed Nov  5 16:28:14 2025
  Analysis ended on:  Wed Nov  5 16:28:16 2025
  Total elapsed time: 00:00:02