
  EPA STORM WATER MANAGEMENT MODEL - VERSION 5.2 (Build 5.2.4)
  PYSWMM TOOLKIT API - VERSION v1.0 (2023-11-27)
  ------------------------------------------------------------

  WARNING 04: minimum elevation drop used for Conduit WS02004404WS02004405
  WARNING 03: negative offset ignored for Link YS02001904YS02001907
  
  ****************
  Analysis Options
  ****************
  Flow Units ............... LPS
  Process Models:
    Rainfall/Runoff ........ YES
    RDII ................... NO
    Snowmelt ............... NO
    Groundwater ............ NO
    Flow Routing ........... YES
    Ponding Allowed ........ NO
    Water Quality .......... NO
  Infiltration Method ...... HORTON
  Flow Routing Method ...... DYNWAVE
  Surcharge Method ......... EXTRAN
  Starting Date ............ 08/28/2015 08:00:00
  Ending Date .............. 08/28/2015 16:00:00
  Antecedent Dry Days ...... 8.0
  Report Time Step ......... 00:01:00
  Wet Time Step ............ 00:01:00
  Dry Time Step ............ 00:01:00
  Routing Time Step ........ 30.00 sec
  Variable Time Step ....... YES
  Maximum Trials ........... 8
  Number of Threads ........ 4
  Head Tolerance ........... 0.001500 m
  
  
  **************************        Volume         Depth
  Runoff Quantity Continuity     hectare-m            mm
  **************************     ---------       -------
  Initial LID Storage ......         0.049         1.488
  Total Precipitation ......         2.297        69.261
  Evaporation Loss .........         0.000         0.000
  Infiltration Loss ........         0.079         2.369
  Surface Runoff ...........         1.709        51.526
  Final Storage ............         0.560        16.876
  Continuity Error (%) .....        -0.032
  
  
  **************************        Volume        Volume
  Flow Routing Continuity        hectare-m      10^6 ltr
  **************************     ---------     ---------
  Dry Weather Inflow .......         0.602         6.020
  Wet Weather Inflow .......         1.709        17.092
  Groundwater Inflow .......         0.000         0.000
  RDII Inflow ..............         0.000         0.000
  External Inflow ..........         0.105         1.045
  External Outflow .........         1.531        15.307
  Flooding Loss ............         0.817         8.172
  Evaporation Loss .........         0.000         0.000
  Exfiltration Loss ........         0.000         0.000
  Initial Stored Volume ....         0.303         3.031
  Final Stored Volume ......         0.827         8.268
  Continuity Error (%) .....       -16.769
  
  
  *************************
  Highest Continuity Errors
  *************************
  Node YS02001774 (12.60%)
  Node WS02006256 (-6.13%)
  Node YS02001884 (4.72%)
  Node YS02001583 (-4.42%)
  Node YS02001754 (3.50%)
  
  
  ***************************
  Time-Step Critical Elements
  ***************************
  Link WS02001212WS02001213 (34.77%)
  Link WS02006235WS02006234 (24.71%)
  Link WS02006238WS02006235 (14.51%)
  Link YS02006556YS02006558 (6.04%)
  Link WS02003066WSF200 (5.60%)
  
  
  ********************************
  Highest Flow Instability Indexes
  ********************************
  Link WS02006113WS02006111 (42)
  Link WS02006111WS02006112 (34)
  Link WS02006238WS02006235 (26)
  Link WS02006110WS02006113 (26)
  Link WS02006256WS02006235 (23)
  
  
  *********************************
  Most Frequent Nonconverging Nodes
  *********************************
  Node CC-1 (8.99%)
  Node CC-2 (8.99%)
  Node JK-1 (8.99%)
  Node JK-2 (8.99%)
  Node WSC (8.99%)
  
  
  *************************
  Routing Time Step Summary
  *************************
  Minimum Time Step           :     0.04 sec
  Average Time Step           :     3.81 sec
  Maximum Time Step           :     6.46 sec
  % of Time in Steady State   :     0.00
  Average Iterations per Step :     3.06
  % of Steps Not Converging   :     8.99
  Time Step Frequencies       :
     30.000 - 13.228 sec      :     0.00 %
     13.228 -  5.833 sec      :    33.52 %
      5.833 -  2.572 sec      :    41.14 %
      2.572 -  1.134 sec      :    18.71 %
      1.134 -  0.500 sec      :     6.62 %
  
  
  ***************************
  Subcatchment Runoff Summary
  ***************************
  
  ------------------------------------------------------------------------------------------------------------------------------
                            Total      Total      Total      Total     Imperv       Perv      Total       Total     Peak  Runoff
                           Precip      Runon       Evap      Infil     Runoff     Runoff     Runoff      Runoff   Runoff   Coeff
  Subcatchment                 mm         mm         mm         mm         mm         mm         mm    10^6 ltr      LPS
  ------------------------------------------------------------------------------------------------------------------------------
  sub60                     69.26       0.00       0.00       1.39      46.12       5.03      51.15        0.67   512.09   0.738
  sub61                     69.26       0.00       0.00       2.13      46.08       7.49      53.57        0.98   749.73   0.773
  sub62                     69.26       0.00       0.00       0.94      49.12       3.42      52.54        1.44  1031.73   0.759
  sub63                     69.26       0.00       0.00       3.94      39.46      12.50      51.96        1.18   866.91   0.750
  sub64                     69.26       0.00       0.00       1.89      44.94       6.21      51.14        1.23   849.45   0.738
  sub65                     69.26       0.00       0.00       1.73      48.50       5.67      54.17        1.49   993.30   0.782
  sub66                     69.26       0.00       0.00       4.66      38.16      11.26      49.43        2.30  1324.27   0.714
  sub67                     69.26       0.00       0.00       0.93      50.36       3.54      53.89        1.00   784.57   0.778
  sub68                     69.26       0.00       0.00       1.64      44.48       5.75      50.22        1.38  1026.66   0.725
  sub69                     69.26       0.00       0.00       1.52      46.58       6.72      53.29        1.97  1282.92   0.769
  sub70                     69.26       0.00       0.00       5.19      37.32      14.09      51.41        1.49   766.00   0.742
  sub71                     69.26       0.00       0.00       0.87      44.62       3.09      47.71        1.25   854.73   0.689
  sub72                     69.26       0.00       0.00       0.83      48.20       2.87      51.08        0.70   442.46   0.737
  

  ***********************
  LID Performance Summary
  ***********************

  --------------------------------------------------------------------------------------------------------------------
                                         Total      Evap     Infil   Surface    Drain    Initial     Final  Continuity
                                        Inflow      Loss      Loss   Outflow   Outflow   Storage   Storage       Error
  Subcatchment      LID Control             mm        mm        mm        mm        mm        mm        mm           %
  --------------------------------------------------------------------------------------------------------------------
  sub60             GreenRoof            69.26      0.00      0.00      0.00      0.00      7.05     76.36       -0.06
  sub61             GreenRoof            69.26      0.00      0.00      0.00      0.00      7.05     76.36       -0.06
  sub62             GreenRoof            69.26      0.00      0.00      0.00      0.00      7.05     76.36       -0.06
  sub63             GreenRoof            69.26      0.00      0.00      0.00      0.00      7.05     76.36       -0.06
  sub64             GreenRoof            69.26      0.00      0.00      0.00      0.00      7.05     76.36       -0.06
  sub65             GreenRoof            69.26      0.00      0.00      0.00      0.00      7.05     76.36       -0.06
  sub66             GreenRoof            69.26      0.00      0.00      0.00      0.00      7.05     76.36       -0.06
  sub67             GreenRoof            69.26      0.00      0.00      0.00      0.00      7.05     76.36       -0.06
  sub68             GreenRoof            69.26      0.00      0.00      0.00      0.00      7.05     76.36       -0.06
  sub69             GreenRoof            69.26      0.00      0.00      0.00      0.00      7.05     76.36       -0.06
  sub70             GreenRoof            69.26      0.00      0.00      0.00      0.00      7.05     76.36       -0.06
  sub71             GreenRoof            69.26      0.00      0.00      0.00      0.00      7.05     76.36       -0.06
  sub72             GreenRoof            69.26      0.00      0.00      0.00      0.00      7.05     76.36       -0.06
  
  ******************
  Node Depth Summary
  ******************
  
  ---------------------------------------------------------------------------------
                                 Average  Maximum  Maximum  Time of Max    Reported
                                   Depth    Depth      HGL   Occurrence   Max Depth
  Node                 Type       Meters   Meters   Meters  days hr:min      Meters
  ---------------------------------------------------------------------------------
  WS02001211           JUNCTION     0.76     0.78     5.62     0  02:39        0.78
  WS02001212           JUNCTION     0.46     0.49     5.55     0  03:19        0.49
  WS02001213           JUNCTION     0.68     0.73     5.49     0  03:19        0.73
  WS02003059           JUNCTION     0.73     0.78     5.47     0  03:18        0.78
  WS02003060           JUNCTION     0.38     0.47     5.41     0  03:18        0.47
  WS02003066           JUNCTION     0.16     0.27     5.82     0  03:17        0.27
  WS02003067           JUNCTION     0.44     0.65     5.97     0  03:17        0.65
  WS02003069           JUNCTION     0.43     0.54     5.12     0  03:18        0.54
  WS02003072           JUNCTION     0.50     0.60     4.97     0  03:19        0.60
  WS02003073           JUNCTION     0.30     0.37     4.43     0  03:20        0.37
  WS02004138           JUNCTION     0.19     0.20     7.45     0  00:00        0.19
  WS02004139           JUNCTION     0.71     0.73     5.64     0  03:21        0.73
  WS02004401           JUNCTION     0.52     0.75     6.75     0  02:14        0.75
  WS02004402           JUNCTION     0.55     0.78     6.74     0  02:43        0.78
  WS02004403           JUNCTION     0.58     0.80     6.73     0  02:14        0.80
  WS02004404           JUNCTION     0.65     0.88     6.73     0  02:14        0.88
  WS02004405           JUNCTION     0.65     0.88     6.73     0  02:43        0.88
  WS02004406           JUNCTION     0.66     0.88     6.71     0  02:14        0.88
  WS02004407           JUNCTION     0.14     0.26     6.57     0  02:15        0.26
  WS02004409           JUNCTION     0.32     0.58     6.35     0  02:44        0.57
  WS02004410           JUNCTION     0.34     0.59     6.31     0  02:45        0.59
  WS02004411           JUNCTION     0.37     0.61     6.29     0  03:16        0.61
  WS02004412           JUNCTION     0.39     0.62     6.26     0  02:45        0.62
  WS02004413           JUNCTION     0.54     0.79     6.26     0  03:17        0.79
  WS02006109           JUNCTION     0.58     0.83     7.45     0  02:13        0.83
  WS02006110           JUNCTION     0.58     0.82     7.41     0  02:13        0.82
  WS02006111           JUNCTION     0.15     0.25     6.96     0  02:42        0.25
  WS02006112           JUNCTION     0.67     0.93     6.82     0  02:42        0.93
  WS02006113           JUNCTION     0.22     0.39     7.29     0  02:12        0.39
  WS02006115           JUNCTION     0.41     0.65     6.78     0  02:42        0.65
  WS02006116           JUNCTION     0.49     0.73     6.77     0  02:43        0.73
  WS02006228           JUNCTION     0.56     0.84     7.50     0  02:13        0.84
  WS02006229           JUNCTION     0.53     0.83     7.52     0  02:13        0.82
  WS02006230           JUNCTION     0.53     0.86     7.60     0  02:18        0.86
  WS02006231           JUNCTION     0.32     0.60     7.72     0  02:17        0.60
  WS02006232           JUNCTION     0.44     0.75     7.79     0  02:48        0.75
  WS02006234           JUNCTION     0.36     0.71     7.87     0  02:17        0.71
  WS02006235           JUNCTION     0.39     0.77     7.93     0  02:21        0.76
  WS02006238           JUNCTION     0.42     0.81     7.95     0  02:42        0.81
  WS02006239           JUNCTION     0.40     0.81     8.02     0  02:12        0.80
  WS02006240           JUNCTION     0.39     0.79     8.08     0  02:48        0.79
  WS02006242           JUNCTION     0.45     0.90     8.17     0  02:13        0.90
  WS02006243           JUNCTION     0.40     0.84     8.26     0  02:23        0.84
  WS02006245           JUNCTION     0.40     0.86     8.34     0  02:14        0.85
  WS02006247           JUNCTION     0.42     0.89     8.39     0  03:01        0.89
  WS02006248           JUNCTION     0.40     0.86     8.45     0  02:17        0.85
  WS02006249           JUNCTION     0.42     0.89     8.49     0  02:19        0.89
  WS02006251           JUNCTION     0.42     0.91     8.58     0  02:48        0.91
  WS02006252           JUNCTION     0.28     1.50     9.74     0  00:00        0.59
  WS02006256           JUNCTION     0.63     2.35     9.28     0  00:00        2.35
  WSF200               JUNCTION     0.13     0.25     5.48     0  03:17        0.25
  YS02001580           JUNCTION     0.10     1.05     9.59     0  02:13        0.77
  YS02001583           JUNCTION     0.13     0.99     9.49     0  02:13        0.82
  YS02001586           JUNCTION     0.22     1.13     9.30     0  02:13        1.13
  YS02001590           JUNCTION     0.33     1.40     9.26     0  02:13        1.37
  YS02001593           JUNCTION     0.26     1.34     9.20     0  02:13        1.28
  YS02001596           JUNCTION     0.51     1.69     9.11     0  02:13        1.65
  YS02001600           JUNCTION     0.73     1.87     9.00     0  02:13        1.86
  YS02001601           JUNCTION     0.97     2.06     8.90     0  02:12        2.06
  YS02001602           JUNCTION     0.88     1.87     8.77     0  02:16        1.87
  YS02001605           JUNCTION     0.85     1.78     8.68     0  02:24        1.77
  YS02001607           JUNCTION     0.84     1.65     8.50     0  02:33        1.64
  YS02001610           JUNCTION     0.88     1.68     8.48     0  02:17        1.68
  YS02001613           JUNCTION     0.84     1.66     8.50     0  02:23        1.66
  YS02001616           JUNCTION     0.78     1.61     8.52     0  02:23        1.60
  YS02001619           JUNCTION     0.76     1.61     8.54     0  02:23        1.60
  YS02001622           JUNCTION     0.76     1.58     8.48     0  02:23        1.57
  YS02001625           JUNCTION     1.01     1.78     8.38     0  02:17        1.78
  YS02001629           JUNCTION     1.03     1.85     8.40     0  02:17        1.85
  YS02001633           JUNCTION     1.10     2.02     8.47     0  02:18        1.98
  YS02001641           JUNCTION     1.09     1.95     8.39     0  02:23        1.93
  YS02001644           JUNCTION     1.08     1.92     8.35     0  02:20        1.92
  YS02001647           JUNCTION     0.89     1.76     8.37     0  02:23        1.76
  YS02001649           JUNCTION     1.04     1.98     8.37     0  02:24        1.98
  YS02001652           JUNCTION     0.87     1.83     8.43     0  02:23        1.82
  YS02001655           JUNCTION     0.69     1.63     8.48     0  02:23        1.60
  YS02001658           JUNCTION     0.50     1.42     8.57     0  02:20        1.35
  YS02001661           JUNCTION     0.34     1.20     8.61     0  02:23        1.12
  YS02001664           JUNCTION     0.07     0.58     8.51     0  02:24        0.54
  YS02001745           JUNCTION     0.23     0.81     8.33     0  02:24        0.81
  YS02001748           JUNCTION     0.52     1.27     8.35     0  02:21        1.24
  YS02001751           JUNCTION     0.65     1.44     8.32     0  02:24        1.43
  YS02001754           JUNCTION     0.84     1.69     8.30     0  02:24        1.69
  YS02001757           JUNCTION     1.12     2.03     8.29     0  02:24        2.03
  YS02001759           JUNCTION     1.04     2.01     8.37     0  02:24        2.01
  YS02001762           JUNCTION     1.01     1.98     8.38     0  02:24        1.97
  YS02001765           JUNCTION     0.97     1.94     8.39     0  02:23        1.93
  YS02001767           JUNCTION     0.95     1.91     8.40     0  02:24        1.90
  YS02001770           JUNCTION     0.95     1.94     8.43     0  02:23        1.92
  YS02001774           JUNCTION     1.02     1.98     8.40     0  02:23        1.97
  YS02001779           JUNCTION     0.79     1.68     8.37     0  02:18        1.68
  YS02001783           JUNCTION     0.50     1.51     7.65     0  02:18        1.51
  YS02001784           JUNCTION     0.54     1.45     7.52     0  02:18        1.45
  YS02001786           JUNCTION     0.54     1.30     7.33     0  02:25        1.30
  YS02001788           JUNCTION     0.54     1.16     7.14     0  02:25        1.16
  YS02001790           JUNCTION     0.76     1.32     6.96     0  02:25        1.31
  YS02001791           JUNCTION     0.85     1.29     6.76     0  02:25        1.28
  YS02001793           JUNCTION     1.29     1.84     6.68     0  02:05        1.84
  YS02001882           JUNCTION     0.33     1.66     8.37     0  02:27        1.64
  YS02001884           JUNCTION     0.42     1.75     8.37     0  02:27        1.74
  YS02001887           JUNCTION     0.49     1.83     8.37     0  02:23        1.81
  YS02001890           JUNCTION     0.52     1.81     8.32     0  02:18        1.81
  YS02001895           JUNCTION     0.30     1.57     8.31     0  02:23        1.56
  YS02001898           JUNCTION     0.31     1.56     8.30     0  02:18        1.56
  YS02001901           JUNCTION     0.41     1.68     8.29     0  02:23        1.67
  YS02001904           JUNCTION     0.39     1.64     8.27     0  02:18        1.64
  YS02001907           JUNCTION     0.70     1.96     8.25     0  02:17        1.96
  YS02001910           JUNCTION     0.51     1.98     8.49     0  02:18        1.87
  YS02001915           JUNCTION     0.33     1.93     8.65     0  02:18        1.75
  YS02001918           JUNCTION     0.18     1.81     8.88     0  02:18        1.44
  YS02001920           JUNCTION     0.26     2.06     9.07     0  02:18        1.50
  YS02001923           JUNCTION     0.13     1.95     9.21     0  02:18        1.27
  YS02001926           JUNCTION     0.17     1.85     9.29     0  02:18        1.10
  YS02001929           JUNCTION     0.09     1.78     9.47     0  02:18        0.86
  YS02006553           JUNCTION     0.71     1.98     8.27     0  02:23        1.98
  YS02006556           JUNCTION     0.68     1.97     8.28     0  02:23        1.95
  YS02006558           JUNCTION     0.72     2.02     8.29     0  02:23        2.00
  YS02006561           JUNCTION     0.19     1.12     7.78     0  02:18        1.12
  YS02163301           JUNCTION     1.05     1.92     8.44     0  02:18        1.90
  YS02163601           JUNCTION     1.14     2.04     8.43     0  02:18        2.01
  YS02164001           JUNCTION     1.08     1.95     8.41     0  02:20        1.93
  CC-1                 OUTFALL      0.00     0.00     0.00     0  00:00        0.00
  CC-2                 OUTFALL      0.00     0.00     0.00     0  00:00        0.00
  JK-1                 OUTFALL      0.00     0.00     0.00     0  00:00        0.00
  JK-2                 OUTFALL      0.00     0.00     0.00     0  00:00        0.00
  WSC                  OUTFALL      0.30     0.37     1.04     0  03:20        0.37
  CC-storage           STORAGE      1.66     2.30     7.80     0  02:48        2.30
  JK-storage           STORAGE      4.39     5.80     6.60     0  02:03        5.80
  XR-storage           STORAGE      0.31     5.00     3.00     0  00:00        4.91
  
  
  *******************
  Node Inflow Summary
  *******************
  
  -------------------------------------------------------------------------------------------------
                                  Maximum  Maximum                  Lateral       Total        Flow
                                  Lateral    Total  Time of Max      Inflow      Inflow     Balance
                                   Inflow   Inflow   Occurrence      Volume      Volume       Error
  Node                 Type           LPS      LPS  days hr:min    10^6 ltr    10^6 ltr     Percent
  -------------------------------------------------------------------------------------------------
  WS02001211           JUNCTION      7.35   389.12     0  03:43       0.212        11.1       0.348
  WS02001212           JUNCTION      0.00   390.84     0  03:46           0        11.1       0.207
  WS02001213           JUNCTION      0.00   392.60     0  03:45           0        11.1       0.238
  WS02003059           JUNCTION      0.00   395.64     0  03:45           0          11       0.328
  WS02003060           JUNCTION     16.53   816.11     0  03:17       0.476        14.8       0.146
  WS02003066           JUNCTION      0.00   411.90     0  03:17           0        3.31       0.037
  WS02003067           JUNCTION      0.00   411.89     0  03:17           0        3.32       0.121
  WS02003069           JUNCTION      0.32   816.38     0  03:18     0.00922        14.8       0.154
  WS02003072           JUNCTION      0.00   816.35     0  03:19           0        14.7       0.201
  WS02003073           JUNCTION      1.82   818.16     0  03:19      0.0524        14.8       0.216
  WS02004138           JUNCTION      0.00   380.00     0  00:00           0        10.9       0.059
  WS02004139           JUNCTION      0.32   395.52     0  00:00     0.00924        10.9       0.407
  WS02004401           JUNCTION      0.00   412.29     0  02:13           0        3.41       0.291
  WS02004402           JUNCTION      0.00   412.25     0  02:14           0         3.4       0.296
  WS02004403           JUNCTION      0.00   412.19     0  02:14           0        3.39       0.291
  WS02004404           JUNCTION      0.16   412.26     0  02:14     0.00467        3.39       0.243
  WS02004405           JUNCTION      0.04   412.35     0  02:14      0.0011        3.38       0.362
  WS02004406           JUNCTION      0.00   412.45     0  02:14           0        3.37       0.606
  WS02004407           JUNCTION      0.00   412.15     0  02:15           0        3.35       0.027
  WS02004409           JUNCTION      0.00   412.05     0  02:15           0        3.35       0.064
  WS02004410           JUNCTION      0.00   412.02     0  02:15           0        3.34       0.116
  WS02004411           JUNCTION      0.00   411.98     0  03:16           0        3.34       0.153
  WS02004412           JUNCTION      0.00   411.97     0  03:16           0        3.34       0.210
  WS02004413           JUNCTION      0.00   412.00     0  03:16           0        3.33       0.377
  WS02006109           JUNCTION      1.23   411.81     0  02:18      0.0354        3.46       0.227
  WS02006110           JUNCTION      0.00   411.81     0  02:18           0        3.45       0.180
  WS02006111           JUNCTION      0.00   423.80     0  02:06           0        3.44       0.023
  WS02006112           JUNCTION      0.00   414.20     0  02:42           0        3.44       0.507
  WS02006113           JUNCTION      0.00   412.05     0  02:42           0        3.44       0.041
  WS02006115           JUNCTION      0.00   412.71     0  02:42           0        3.42       0.181
  WS02006116           JUNCTION      0.00   412.41     0  02:13           0        3.42       0.133
  WS02006228           JUNCTION      0.00   410.71     0  02:12           0        3.42       0.080
  WS02006229           JUNCTION      0.00   410.57     0  02:18           0        3.43       0.133
  WS02006230           JUNCTION     10.28   410.61     0  02:17       0.296        3.43       0.174
  WS02006231           JUNCTION      0.00   400.42     0  02:17           0        3.13      -0.102
  WS02006232           JUNCTION      0.00   400.41     0  02:17           0        3.14       0.263
  WS02006234           JUNCTION      0.00   401.71     0  02:48           0        3.14      -0.173
  WS02006235           JUNCTION      0.00   401.73     0  02:46           0        3.15       0.228
  WS02006238           JUNCTION      0.00   401.26     0  02:48           0        3.13      -0.203
  WS02006239           JUNCTION      0.00   401.25     0  02:48           0        3.12      -0.154
  WS02006240           JUNCTION      0.00   400.72     0  02:17           0        3.11      -0.044
  WS02006242           JUNCTION      0.00   401.06     0  02:38           0        3.11       0.009
  WS02006243           JUNCTION      0.00   400.79     0  02:23           0        3.11       0.026
  WS02006245           JUNCTION      0.00   402.75     0  02:44           0        3.12       0.317
  WS02006247           JUNCTION      0.00   400.92     0  02:02           0        3.12       0.015
  WS02006248           JUNCTION      0.00   401.00     0  02:10           0        3.13       0.090
  WS02006249           JUNCTION      0.00   458.97     0  00:00           0        3.13       0.218
  WS02006251           JUNCTION      0.08   401.14     0  02:15     0.00222        3.13      -0.002
  WS02006252           JUNCTION      0.00   400.00     0  00:00           0        3.13      -0.030
  WS02006256           JUNCTION      0.00   300.00     0  00:00           0      0.0242      -5.773
  WSF200               JUNCTION      0.00   411.90     0  03:17           0        3.31       0.016
  YS02001580           JUNCTION      0.00    76.78     0  02:13           0     0.00403       1.570
  YS02001583           JUNCTION      0.00   130.70     0  02:12           0      0.0152      -4.231
  YS02001586           JUNCTION    766.00   766.00     0  02:26        1.49         1.5       0.062
  YS02001590           JUNCTION      0.00   317.99     0  02:20           0        1.19       0.018
  YS02001593           JUNCTION      0.00   318.05     0  02:19           0        1.18       0.025
  YS02001596           JUNCTION      0.00   318.13     0  02:32           0        1.18       0.296
  YS02001600           JUNCTION      0.00   318.02     0  02:35           0        1.18       0.674
  YS02001601           JUNCTION   1282.92  1600.26     0  02:25        1.97        3.15       0.284
  YS02001602           JUNCTION      0.00   491.67     0  02:12           0        2.03       0.455
  YS02001605           JUNCTION      0.00   492.48     0  02:12           0        1.91       0.732
  YS02001607           JUNCTION      0.00   493.38     0  02:12           0         1.9       1.124
  YS02001610           JUNCTION      0.00   722.12     0  02:26           0        2.04       1.117
  YS02001613           JUNCTION      0.00   499.66     0  02:11           0        1.65       1.448
  YS02001616           JUNCTION      0.00   496.70     0  02:12           0        1.63       1.341
  YS02001619           JUNCTION   1324.27  1324.27     0  02:26         2.3        3.74       0.562
  YS02001622           JUNCTION      0.00   957.30     0  02:25           0        3.56       0.828
  YS02001625           JUNCTION      0.00  1350.42     0  02:26           0        3.71       1.221
  YS02001629           JUNCTION      0.00   932.13     0  02:16           0        2.77       0.829
  YS02001633           JUNCTION    993.50  1350.51     0  02:16         1.5        4.02       0.800
  YS02001641           JUNCTION      0.00  1347.27     0  02:16           0        3.76       0.560
  YS02001644           JUNCTION    849.48  1717.01     0  02:17        1.23        4.97       0.524
  YS02001647           JUNCTION      0.00  1723.67     0  02:17           0        4.59       0.615
  YS02001649           JUNCTION      0.00  1907.65     0  02:16           0        5.69       0.657
  YS02001652           JUNCTION      0.00   890.26     0  02:25           0        1.17       2.012
  YS02001655           JUNCTION      0.15   889.33     0  02:25     0.00443        1.19       1.963
  YS02001658           JUNCTION      0.00   888.70     0  02:25           0        1.19       1.272
  YS02001661           JUNCTION      0.00   885.33     0  02:25           0        1.19       0.608
  YS02001664           JUNCTION    866.91   866.91     0  02:25        1.18        1.18      -0.027
  YS02001745           JUNCTION    512.10   512.10     0  02:25       0.672       0.678       0.679
  YS02001748           JUNCTION      0.04   517.22     0  02:25      0.0013       0.688       2.123
  YS02001751           JUNCTION      0.01   519.48     0  02:25    0.000317       0.686       3.269
  YS02001754           JUNCTION      0.26   519.88     0  02:25     0.00749        0.68       3.626
  YS02001757           JUNCTION      0.00  3095.07     0  02:21           0        8.41       1.117
  YS02001759           JUNCTION    749.77  1281.95     0  02:23       0.984        2.16       1.068
  YS02001762           JUNCTION      0.00   684.83     0  02:21           0        1.19       1.810
  YS02001765           JUNCTION      0.00   686.13     0  02:21           0        1.21       2.045
  YS02001767           JUNCTION      0.54   686.31     0  02:21      0.0154        1.25       2.940
  YS02001770           JUNCTION   1031.88  1031.88     0  02:25        1.44        1.46       2.229
  YS02001774           JUNCTION      0.00   532.26     0  02:25           0         0.2      14.415
  YS02001779           JUNCTION      0.01   533.20     0  02:25    0.000144       0.166      10.088
  YS02001783           JUNCTION      0.00   980.96     0  02:23           0        3.28       0.213
  YS02001784           JUNCTION      1.06   981.86     0  02:23      0.0305         3.3       0.312
  YS02001786           JUNCTION      0.06   981.43     0  02:23     0.00162        3.29       0.406
  YS02001788           JUNCTION      0.07   981.69     0  02:23     0.00204        3.28       0.416
  YS02001790           JUNCTION      0.15   981.96     0  02:23     0.00446        3.27       0.516
  YS02001791           JUNCTION      0.00   982.17     0  02:23           0        3.26       0.454
  YS02001793           JUNCTION      0.00   982.24     0  02:23           0        3.24       0.504
  YS02001882           JUNCTION      0.00    31.78     0  02:15           0      0.0124       3.522
  YS02001884           JUNCTION      0.00    67.03     0  02:14           0      0.0484       4.949
  YS02001887           JUNCTION    785.02   785.02     0  02:25        1.02        1.05       0.405
  YS02001890           JUNCTION      0.00   785.56     0  02:25           0        1.01       0.486
  YS02001895           JUNCTION      0.00   516.92     0  02:27           0       0.941       0.127
  YS02001898           JUNCTION      0.00   517.59     0  02:27           0       0.939      -0.003
  YS02001901           JUNCTION      0.00   518.10     0  02:28           0       0.942       0.326
  YS02001904           JUNCTION      0.00   517.71     0  02:27           0       0.946       0.269
  YS02001907           JUNCTION      0.00  1880.03     0  02:25           0        2.98       0.603
  YS02001910           JUNCTION      0.00  1316.47     0  02:25           0        2.03       0.346
  YS02001915           JUNCTION    854.75  1316.08     0  02:25        1.25        2.07       0.058
  YS02001918           JUNCTION      0.00   470.62     0  02:25           0       0.851      -0.004
  YS02001920           JUNCTION      2.87   470.26     0  02:25      0.0827       0.835       0.097
  YS02001923           JUNCTION      0.04   463.49     0  02:25     0.00109       0.736      -0.093
  YS02001926           JUNCTION      0.05   506.00     0  02:18      0.0015       0.715      -0.028
  YS02001929           JUNCTION    442.46   442.46     0  02:25       0.702       0.703      -0.085
  YS02006553           JUNCTION      0.00   681.89     0  02:37           0        1.92       0.604
  YS02006556           JUNCTION      0.00   681.40     0  02:37           0        1.93       0.411
  YS02006558           JUNCTION   1027.54  1027.54     0  02:25        1.41        3.31       0.105
  YS02006561           JUNCTION      0.00   981.17     0  02:23           0        3.28      -0.008
  YS02163301           JUNCTION      0.00   933.48     0  02:16           0        2.74       0.878
  YS02163601           JUNCTION      0.11  1350.10     0  02:16     0.00317         3.8       0.789
  YS02164001           JUNCTION      0.00  1349.75     0  02:16           0        3.78       0.527
  CC-1                 OUTFALL       0.00   683.00     0  00:00           0       0.208       0.000
  CC-2                 OUTFALL       0.00   683.00     0  00:00           0       0.208       0.000
  JK-1                 OUTFALL       0.00  1000.00     0  00:00           0      0.0791       0.000
  JK-2                 OUTFALL       0.00  1000.00     0  00:00           0      0.0791       0.000
  WSC                  OUTFALL       0.00   818.14     0  03:20           0        14.7       0.000
  CC-storage           STORAGE       0.00  3095.58     0  02:21           0        10.5       0.427
  JK-storage           STORAGE       0.00   983.20     0  02:23           0        3.38       0.484
  XR-storage           STORAGE     200.00   200.00     0  00:00        5.76        6.36     -41.886
  
  
  **********************
  Node Surcharge Summary
  **********************
  
  Surcharging occurs when water rises above the top of the highest conduit.
  ---------------------------------------------------------------------
                                               Max. Height   Min. Depth
                                   Hours       Above Crown    Below Rim
  Node                 Type      Surcharged         Meters       Meters
  ---------------------------------------------------------------------
  WS02006109           JUNCTION        1.85          0.015        1.805
  WS02006228           JUNCTION        1.84          0.015        2.185
  WS02006229           JUNCTION        1.86          0.025        2.425
  WS02006232           JUNCTION        1.91          0.051        1.429
  WS02006235           JUNCTION        1.86          0.055        1.235
  WS02006238           JUNCTION        1.88          0.086        1.344
  WS02006239           JUNCTION        1.86          0.067        1.223
  WS02006240           JUNCTION        1.86          0.079        1.311
  WS02006242           JUNCTION        1.94          0.175        0.645
  WS02006243           JUNCTION        1.88          0.132        0.638
  WS02006245           JUNCTION        1.88          0.147        0.703
  WS02006247           JUNCTION        1.90          0.180        0.580
  WS02006248           JUNCTION        1.88          0.138        0.242
  WS02006249           JUNCTION        1.89          0.194        0.196
  WS02006252           JUNCTION        2.17          1.100        0.000
  WS02006256           JUNCTION        3.09          2.050        0.000
  YS02001580           JUNCTION        0.53          0.450        0.000
  YS02001583           JUNCTION        0.53          0.355        0.145
  YS02001586           JUNCTION        0.69          0.510        0.000
  YS02001590           JUNCTION        0.78          0.750        0.000
  YS02001593           JUNCTION        0.79          0.722        0.118
  YS02001596           JUNCTION        0.93          0.956        0.114
  YS02001600           JUNCTION        1.30          1.190        0.000
  YS02001601           JUNCTION        6.16          1.440        0.000
  YS02001602           JUNCTION        6.09          1.270        0.000
  YS02001605           JUNCTION        6.06          1.176        0.004
  YS02001607           JUNCTION        0.97          0.647        0.033
  YS02001610           JUNCTION        1.32          0.680        0.000
  YS02001613           JUNCTION        0.98          0.663        0.037
  YS02001616           JUNCTION        0.87          0.610        0.000
  YS02001619           JUNCTION        0.86          0.610        0.000
  YS02001622           JUNCTION        0.87          0.575        0.045
  YS02001625           JUNCTION        5.84          0.780        0.000
  YS02001629           JUNCTION        0.83          0.470        0.000
  YS02001633           JUNCTION        5.86          0.997        0.063
  YS02001641           JUNCTION        5.82          0.951        0.149
  YS02001644           JUNCTION        5.80          0.920        0.000
  YS02001647           JUNCTION        5.72          0.757        0.143
  YS02001649           JUNCTION        5.72          0.980        0.070
  YS02001652           JUNCTION        5.70          0.801        0.329
  YS02001655           JUNCTION        0.74          0.634        0.566
  YS02001658           JUNCTION        0.22          0.424        0.876
  YS02001661           JUNCTION        0.03          0.133        1.257
  YS02001748           JUNCTION        0.16          0.190        1.000
  YS02001751           JUNCTION        0.67          0.443        0.757
  YS02001754           JUNCTION        5.69          0.644        0.506
  YS02001757           JUNCTION        5.72          1.026        0.184
  YS02001759           JUNCTION        5.71          1.009        0.201
  YS02001762           JUNCTION        5.71          0.980        0.170
  YS02001765           JUNCTION        5.70          0.942        0.158
  YS02001767           JUNCTION        5.70          0.914        0.116
  YS02001770           JUNCTION        5.70          0.905        0.015
  YS02001774           JUNCTION        5.70          0.983        0.067
  YS02001779           JUNCTION        5.69          0.680        0.000
  YS02001783           JUNCTION        0.68          0.711        0.889
  YS02001784           JUNCTION        0.71          0.654        0.836
  YS02001786           JUNCTION        0.68          0.498        0.932
  YS02001788           JUNCTION        0.68          0.363        1.117
  YS02001790           JUNCTION        5.95          0.518        0.639
  YS02001791           JUNCTION        5.96          0.488        1.432
  YS02001793           JUNCTION        6.00          0.845        1.755
  YS02001882           JUNCTION        0.44          0.658        0.172
  YS02001884           JUNCTION        0.45          0.689        0.181
  YS02001887           JUNCTION        0.48          0.779        0.171
  YS02001890           JUNCTION        0.49          0.760        0.000
  YS02001895           JUNCTION        0.43          0.566        0.184
  YS02001898           JUNCTION        0.42          0.534        0.206
  YS02001901           JUNCTION        0.47          0.677        0.193
  YS02001904           JUNCTION        0.46          0.638        0.212
  YS02001907           JUNCTION        0.69          0.950        0.000
  YS02001910           JUNCTION        0.52          0.980        0.120
  YS02001915           JUNCTION        0.43          0.931        0.069
  YS02001918           JUNCTION        0.35          0.810        0.000
  YS02001920           JUNCTION        0.36          1.060        0.080
  YS02001923           JUNCTION        0.04          0.744        0.076
  YS02001926           JUNCTION        0.09          0.850        0.050
  YS02001929           JUNCTION        0.01          0.780        0.000
  YS02006553           JUNCTION        0.71          0.982        0.208
  YS02006556           JUNCTION        0.61          0.931        0.419
  YS02006558           JUNCTION        0.59          0.922        0.478
  YS02006561           JUNCTION        0.39          0.319        0.831
  YS02163301           JUNCTION        5.85          0.919        0.111
  YS02163601           JUNCTION        5.87          1.035        0.045
  YS02164001           JUNCTION        5.82          0.949        0.151
  
  
  *********************
  Node Flooding Summary
  *********************
  
  Flooding refers to all water that overflows a node, whether it ponds or not.
  --------------------------------------------------------------------------
                                                             Total   Maximum
                                 Maximum   Time of Max       Flood    Ponded
                        Hours       Rate    Occurrence      Volume     Depth
  Node                 Flooded       LPS   days hr:min    10^6 ltr    Meters
  --------------------------------------------------------------------------
  WS02006252              0.01    245.63      0  00:00       0.000     0.000
  WS02006256              0.02    293.19      0  00:00       0.005     0.000
  YS02001580              0.01     32.93      0  02:13       0.000     0.000
  YS02001586              0.41    448.42      0  02:26       0.300     0.000
  YS02001590              0.01      4.93      0  02:13       0.000     0.000
  YS02001600              0.01      2.56      0  02:13       0.000     0.000
  YS02001601              0.60   1202.01      0  02:25       1.103     0.000
  YS02001602              0.57     62.02      0  02:23       0.117     0.000
  YS02001610              0.45    721.70      0  02:26       0.541     0.000
  YS02001616              0.01      0.92      0  02:23       0.000     0.000
  YS02001619              0.01      2.66      0  02:23       0.000     0.000
  YS02001625              0.50   1350.42      0  02:26       1.085     0.000
  YS02001629              0.12     68.31      0  02:21       0.017     0.000
  YS02001644              0.18   1052.22      0  02:25       0.349     0.000
  YS02001779              0.15    532.99      0  02:25       0.146     0.000
  YS02001890              0.14    269.28      0  02:25       0.063     0.000
  YS02001907              0.30   1880.01      0  02:25       1.050     0.000
  YS02001918              0.01     83.11      0  02:18       0.001     0.000
  YS02001929              0.01    184.71      0  02:18       0.000     0.000
  CC-storage              0.32    831.47      0  02:48       0.508     0.000
  JK-storage              5.94    983.08      0  02:23       2.886     0.000
  
  
  **********************
  Storage Volume Summary
  **********************
  
  ------------------------------------------------------------------------------------------------
                         Average    Avg   Evap  Exfil     Maximum    Max    Time of Max    Maximum
                          Volume   Pcnt   Pcnt   Pcnt      Volume   Pcnt     Occurrence    Outflow
  Storage Unit           1000 m³   Full   Loss   Loss     1000 m³   Full    days hr:min        LPS
  ------------------------------------------------------------------------------------------------
  CC-storage               4.630   72.2    0.0    0.0       6.410  100.0       0  02:48    1783.53
  JK-storage               0.220   75.7    0.0    0.0       0.291  100.0       0  02:03    2300.00
  XR-storage               0.037    2.6    0.0    0.0       0.600   41.7       0  00:00     380.00
  
  
  ***********************
  Outfall Loading Summary
  ***********************
  
  -----------------------------------------------------------
                         Flow       Avg       Max       Total
                         Freq      Flow      Flow      Volume
  Outfall Node           Pcnt       LPS       LPS    10^6 ltr
  -----------------------------------------------------------
  CC-1                   1.35    683.00    683.00       0.208
  CC-2                   1.35    683.00    683.00       0.208
  JK-1                   1.26    347.46   1000.00       0.079
  JK-2                   1.26    347.46   1000.00       0.079
  WSC                   99.92    572.74    818.14      14.732
  -----------------------------------------------------------
  System                21.03   2633.66   3366.35      15.307
  
  
  ********************
  Link Flow Summary
  ********************
  
  -----------------------------------------------------------------------------
                                 Maximum  Time of Max   Maximum    Max/    Max/
                                  |Flow|   Occurrence   |Veloc|    Full    Full
  Link                 Type          LPS  days hr:min     m/sec    Flow   Depth
  -----------------------------------------------------------------------------
  1                    CONDUIT    818.14     0  03:20      3.15    0.28    0.37
  WS02001211WS02001212 CONDUIT    390.84     0  03:46      0.78    0.30    0.64
  WS02001212WS02001213 CONDUIT    392.60     0  03:45      1.32    0.61    0.45
  WS02001213WS02003059 CONDUIT    395.64     0  03:45      0.85    0.65    0.75
  WS02003059WS02003060 CONDUIT    399.92     0  03:45      0.95    0.26    0.63
  WS02003060WS02003069 CONDUIT    816.06     0  03:18      1.80    0.32    0.42
  WS02003066WSF200     CONDUIT    411.90     0  03:17      2.69    0.07    0.19
  WS02003067WS02003066 CONDUIT    411.90     0  03:17      1.04    0.13    0.38
  WS02003069WS02003072 CONDUIT    816.35     0  03:19      1.55    0.39    0.47
  WS02003072WS02003073 CONDUIT    816.34     0  03:19      1.64    1.76    0.45
  WS02004138WS02004139 CONDUIT    395.20     0  00:00      3.65    0.08    0.43
  WS02004139WS02001211 CONDUIT    381.78     0  03:43      0.91    0.48    0.59
  WS02004401WS02004402 CONDUIT    412.25     0  02:14      0.99    0.49    0.77
  WS02004402WS02004403 CONDUIT    412.19     0  02:14      0.99    0.59    0.79
  WS02004403WS02004404 CONDUIT    412.09     0  02:14      0.93    0.30    0.84
  WS02004404WS02004405 CONDUIT    412.31     0  02:14      1.10    4.04    0.88
  WS02004405WS02004406 CONDUIT    412.45     0  02:14      1.03    0.81    0.88
  WS02004406WS02004407 CONDUIT    412.15     0  02:15      0.89    0.18    0.57
  WS02004407WS02004409 CONDUIT    412.05     0  02:15      1.42    0.15    0.42
  WS02004409WS02004410 CONDUIT    412.02     0  02:15      0.91    0.53    0.58
  WS02004410WS02004411 CONDUIT    411.98     0  03:16      0.86    0.56    0.60
  WS02004411WS02004412 CONDUIT    411.97     0  03:16      0.81    0.59    0.61
  WS02004412WS02004413 CONDUIT    412.00     0  03:16      0.70    0.28    0.70
  WS02004413WS02003067 CONDUIT    411.89     0  03:17      0.96    0.18    0.53
  WS02006109WS02006110 CONDUIT    411.81     0  02:18      0.84    0.79    0.94
  WS02006110WS02006113 CONDUIT    412.05     0  02:42      1.03    0.37    0.75
  WS02006111WS02006112 CONDUIT    414.20     0  02:42      1.83    0.20    0.65
  WS02006112WS02006115 CONDUIT    412.71     0  02:42      0.71    0.24    0.78
  WS02006113WS02006111 CONDUIT    423.80     0  02:06      2.25    0.51    0.40
  WS02006115WS02006116 CONDUIT    412.41     0  02:13      0.98    0.53    0.66
  WS02006116WS02004401 CONDUIT    412.29     0  02:13      1.00    0.57    0.74
  WS02006228WS02006109 CONDUIT    410.58     0  02:18      1.06    1.79    1.00
  WS02006229WS02006228 CONDUIT    410.71     0  02:12      1.13    1.36    1.00
  WS02006230WS02006229 CONDUIT    410.57     0  02:18      1.22    9.14    1.00
  WS02006231WS02006230 CONDUIT    400.33     0  02:17      1.37    6.07    0.77
  WS02006232WS02006231 CONDUIT    400.42     0  02:17      1.08    0.84    0.92
  WS02006234WS02006232 CONDUIT    400.41     0  02:17      1.40    0.81    1.00
  WS02006235WS02006234 CONDUIT    401.71     0  02:48      1.29    4.24    0.99
  WS02006238WS02006235 CONDUIT    401.73     0  02:46      1.45    0.90    1.00
  WS02006239WS02006238 CONDUIT    401.26     0  02:48      1.20    1.28    1.00
  WS02006240WS02006239 CONDUIT    401.25     0  02:48      1.31    1.26    1.00
  WS02006242WS02006240 CONDUIT    400.72     0  02:17      1.16    1.59    1.00
  WS02006243WS02006242 CONDUIT    401.06     0  02:38      1.43    0.86    1.00
  WS02006245WS02006243 CONDUIT    400.79     0  02:23      1.45    1.19    1.00
  WS02006247WS02006245 CONDUIT    402.75     0  02:44      1.43    3.19    1.00
  WS02006248WS02006247 CONDUIT    400.92     0  02:02      1.46    0.87    1.00
  WS02006249WS02006248 CONDUIT    401.00     0  02:10      1.38    2.20    1.00
  WS02006251WS02006249 CONDUIT    458.97     0  00:00      1.99    1.32    1.00
  WS02006252WS02006251 CONDUIT    401.07     0  02:15     24.55    1.47    1.00
  WS02006256WS02006235 CONDUIT    288.91     0  00:00      4.23    3.06    1.00
  WSF200WS02003060     CONDUIT    411.91     0  03:17      1.43    0.09    0.30
  YS02001580YS02001583 CONDUIT     76.78     0  02:13      0.54    0.30    1.00
  YS02001583YS02001586 CONDUIT    130.70     0  02:12      0.54    0.20    1.00
  YS02001586YS02001590 CONDUIT    317.99     0  02:20      1.26    0.56    1.00
  YS02001590YS02001593 CONDUIT    318.05     0  02:19      1.12    2.00    1.00
  YS02001593YS02001596 CONDUIT    318.13     0  02:32      1.63    0.50    1.00
  YS02001596YS02001600 CONDUIT    318.02     0  02:35      1.12    0.62    1.00
  YS02001600YS02001601 CONDUIT    317.90     0  02:20      1.12    0.55    1.00
  YS02001601YS02001602 CONDUIT    491.67     0  02:12      1.74    1.78    1.00
  YS02001602YS02001605 CONDUIT    492.48     0  02:12      1.74   10.42    1.00
  YS02001605YS02001607 CONDUIT    493.38     0  02:12      1.74    2.71    1.00
  YS02001607YS02001610 CONDUIT    497.34     0  02:11      0.63    0.47    1.00
  YS02001610YS02001613 CONDUIT    499.66     0  02:11      0.64    0.58    1.00
  YS02001613YS02001616 CONDUIT    496.70     0  02:12      0.64    0.43    1.00
  YS02001616YS02001619 CONDUIT    488.58     0  02:12      0.66    0.85    1.00
  YS02001619YS02001622 CONDUIT    957.30     0  02:25      1.22    1.41    1.00
  YS02001622YS02001625 CONDUIT    958.52     0  02:25      1.22    0.51    1.00
  YS02001625YS02001629 CONDUIT    932.13     0  02:16      1.19    0.44    1.00
  YS02001629YS02163301 CONDUIT    933.48     0  02:16      1.19    1.15    1.00
  YS02001633YS02163601 CONDUIT   1349.99     0  02:16      1.72    1.42    1.00
  YS02001641YS02001644 CONDUIT   1351.42     0  02:17      1.72    4.37    1.00
  YS02001644YS02001647 CONDUIT   1723.67     0  02:17      2.20    1.01    1.00
  YS02001647YS02001649 CONDUIT   1738.80     0  02:17      2.30    0.92    1.00
  YS02001649YS02001757 CONDUIT   1887.89     0  02:17      2.48    1.15    1.00
  YS02001652YS02001649 CONDUIT    891.24     0  02:25      1.13    0.44    1.00
  YS02001655YS02001652 CONDUIT    890.26     0  02:25      1.24    0.43    1.00
  YS02001658YS02001655 CONDUIT    889.17     0  02:25      1.84    0.38    1.00
  YS02001661YS02001658 CONDUIT    888.70     0  02:25      2.23    0.35    1.00
  YS02001664YS02001661 CONDUIT    885.33     0  02:25      2.19    0.28    0.79
  YS02001745YS02001748 CONDUIT    517.17     0  02:25      2.04    0.20    0.91
  YS02001748YS02001751 CONDUIT    519.46     0  02:25      1.61    0.26    1.00
  YS02001751YS02001754 CONDUIT    519.62     0  02:25      1.33    0.25    1.00
  YS02001754YS02001757 CONDUIT    520.09     0  02:25      0.66    0.21    1.00
  YS02001757CaochengTiaoxuchi CONDUIT   3095.58     0  02:21      3.94    1.34    1.00
  YS02001759YS02001757 CONDUIT   1282.74     0  02:23      1.63    0.91    1.00
  YS02001762YS02001759 CONDUIT    685.66     0  02:21      0.87    0.79    1.00
  YS02001765YS02001762 CONDUIT    684.83     0  02:21      0.87    0.64    1.00
  YS02001767YS02001765 CONDUIT    686.13     0  02:21      0.87    0.86    1.00
  YS02001770YS02001767 CONDUIT    685.78     0  02:21      0.87    2.72    1.00
  YS02001774YS02001770 CONDUIT    532.26     0  02:25      0.68    0.34    1.00
  YS02001779YS02001774 CONDUIT    533.20     0  02:25      0.68    0.27    1.00
  YS02001783YS02001784 CONDUIT    980.80     0  02:23      1.95    1.35    1.00
  YS02001784YS02001785 CONDUIT    981.37     0  02:23      1.95    2.28    1.00
  YS02001786YS02001788 CONDUIT    981.62     0  02:23      1.95    1.89    1.00
  YS02001788YS02001790 CONDUIT    981.80     0  02:23      1.95    0.72    1.00
  YS02001790YS02001791 CONDUIT    982.17     0  02:23      2.27    1.07    1.00
  YS02001791YS02001793 CONDUIT    982.24     0  02:23      4.34    0.42    1.00
  YS02001793JiankangQianchi CONDUIT    983.20     0  02:23      1.54    0.08    1.00
  YS02001882YS02001884 CONDUIT     31.78     0  02:15      0.12    0.04    1.00
  YS02001884YS02001887 CONDUIT     67.03     0  02:14      0.09    0.09    1.00
  YS02001887YS02001890 CONDUIT    785.56     0  02:25      1.00    1.34    1.00
  YS02001890YS02001895 CONDUIT    516.92     0  02:27      0.66    0.24    1.00
  YS02001895YS02001898 CONDUIT    517.59     0  02:27      0.66    0.90    1.00
  YS02001898YS02001901 CONDUIT    518.10     0  02:28      0.66    0.33    1.00
  YS02001901YS02001904 CONDUIT    517.71     0  02:27      0.66    0.80    1.00
  YS02001904YS02001907 CONDUIT    518.36     0  02:27      0.66    0.18    1.00
  YS02001907YS02006553 CONDUIT    681.89     0  02:37      0.76    0.80    1.00
  YS02001910YS02001907 CONDUIT   1316.79     0  02:25      1.68    0.74    1.00
  YS02001915YS02001910 CONDUIT   1316.47     0  02:25      1.68    0.65    1.00
  YS02001918YS02001915 CONDUIT    471.18     0  02:25      0.60    0.26    1.00
  YS02001920YS02001918 CONDUIT    470.62     0  02:25      0.63    0.46    1.00
  YS02001923YS02001920 CONDUIT    467.39     0  02:25      0.69    0.21    1.00
  YS02001926YS02001923 CONDUIT    463.45     0  02:25      0.93    0.66    1.00
  YS02001929YS02001926 CONDUIT    460.89     0  02:25      1.07    0.22    1.00
  YS02006553YS02006556 CONDUIT    681.40     0  02:37      0.87    0.58    1.00
  YS02006556YS02006558 CONDUIT    684.90     0  02:37      0.87    0.54    1.00
  YS02006558YS02006561 CONDUIT    981.17     0  02:23      3.47    2.17    1.00
  YS02006561YS02001783 CONDUIT    980.96     0  02:23      1.95    0.51    1.00
  YS02163301YS02001633 CONDUIT    933.07     0  02:16      1.19    0.88    1.00
  YS02163601YS02164001 CONDUIT   1349.75     0  02:16      1.72    1.20    1.00
  YS02164001YS02001641 CONDUIT   1347.27     0  02:16      1.72    1.84    1.00
  CC-R1                PUMP       683.00     0  00:00              1.00
  CC-R2                PUMP       683.00     0  00:00              1.00
  CC-S1                PUMP       200.00     0  00:00              1.00
  CC-S2                PUMP       200.00     0  00:00              1.00
  JK-R1                PUMP      1000.00     0  00:00              1.00
  JK-R2                PUMP      1000.00     0  00:00              1.00
  JK-S                 PUMP       300.00     0  00:00              1.00
  XR-1                 PUMP        95.00     0  00:00              1.00
  XR-2                 PUMP        95.00     0  00:00              1.00
  XR-3                 PUMP        95.00     0  00:00              1.00
  XR-4                 PUMP        95.00     0  00:00              1.00
  
  
  ***************************
  Flow Classification Summary
  ***************************
  
  -------------------------------------------------------------------------------------
                      Adjusted    ---------- Fraction of Time in Flow Class ---------- 
                       /Actual         Up    Down  Sub   Sup   Up    Down  Norm  Inlet 
  Conduit               Length    Dry  Dry   Dry   Crit  Crit  Crit  Crit  Ltd   Ctrl  
  -------------------------------------------------------------------------------------
  1                       1.00   0.00  0.00  0.00  0.00  1.00  0.00  0.00  0.18  0.00
  WS02001211WS02001212    1.00   0.00  0.00  0.00  1.00  0.00  0.00  0.00  0.00  0.00
  WS02001212WS02001213    1.00   0.00  0.00  0.00  0.37  0.00  0.63  0.00  0.00  0.00
  WS02001213WS02003059    1.00   0.00  0.00  0.00  0.99  0.00  0.00  0.00  0.00  0.00
  WS02003059WS02003060    1.00   0.00  0.00  0.00  1.00  0.00  0.00  0.00  0.00  0.00
  WS02003060WS02003069    1.00   0.00  0.00  0.00  0.99  0.01  0.00  0.00  0.00  0.00
  WS02003066WSF200        1.00   0.02  0.10  0.00  0.00  0.88  0.00  0.00  0.87  0.00
  WS02003067WS02003066    1.00   0.10  0.02  0.00  0.89  0.00  0.00  0.00  0.00  0.00
  WS02003069WS02003072    1.00   0.00  0.00  0.00  0.99  0.01  0.00  0.00  0.00  0.00
  WS02003072WS02003073    1.00   0.00  0.00  0.00  0.00  0.00  0.00  1.00  0.00  0.00
  WS02004138WS02004139    1.00   0.00  0.00  0.00  0.99  0.01  0.00  0.00  1.00  0.00
  WS02004139WS02001211    1.00   0.00  0.00  0.00  1.00  0.00  0.00  0.00  0.00  0.00
  WS02004401WS02004402    1.00   0.02  0.00  0.00  0.98  0.00  0.00  0.00  0.00  0.00
  WS02004402WS02004403    1.00   0.02  0.00  0.00  0.98  0.00  0.00  0.00  0.00  0.00
  WS02004403WS02004404    1.00   0.00  0.03  0.00  0.97  0.00  0.00  0.00  0.00  0.00
  WS02004404WS02004405    1.00   0.00  0.00  0.00  1.00  0.00  0.00  0.00  0.00  0.00
  WS02004405WS02004406    1.00   0.00  0.00  0.00  1.00  0.00  0.00  0.00  0.00  0.00
  WS02004406WS02004407    1.00   0.00  0.05  0.00  0.95  0.00  0.00  0.00  0.00  0.00
  WS02004407WS02004409    1.00   0.05  0.00  0.00  0.94  0.01  0.00  0.00  0.94  0.00
  WS02004409WS02004410    1.00   0.05  0.00  0.00  0.95  0.00  0.00  0.00  0.02  0.00
  WS02004410WS02004411    1.00   0.05  0.00  0.00  0.95  0.00  0.00  0.00  0.00  0.00
  WS02004411WS02004412    1.00   0.05  0.00  0.00  0.95  0.00  0.00  0.00  0.00  0.00
  WS02004412WS02004413    1.00   0.05  0.00  0.00  0.94  0.00  0.00  0.00  0.01  0.00
  WS02004413WS02003067    1.00   0.06  0.04  0.00  0.00  0.00  0.90  0.00  0.00  0.00
  WS02006109WS02006110    1.00   0.00  0.01  0.00  0.98  0.00  0.01  0.00  0.00  0.00
  WS02006110WS02006113    1.00   0.01  0.01  0.00  0.98  0.00  0.00  0.00  0.00  0.00
  WS02006111WS02006112    1.00   0.02  0.00  0.00  0.98  0.00  0.00  0.00  0.98  0.00
  WS02006112WS02006115    1.00   0.02  0.00  0.00  0.97  0.00  0.00  0.00  0.00  0.00
  WS02006113WS02006111    1.00   0.02  0.00  0.00  0.00  0.98  0.00  0.00  0.11  0.00
  WS02006115WS02006116    1.00   0.02  0.00  0.00  0.97  0.00  0.00  0.01  0.00  0.00
  WS02006116WS02004401    1.00   0.02  0.00  0.00  0.98  0.00  0.00  0.00  0.00  0.00
  WS02006228WS02006109    1.00   0.00  0.00  0.00  1.00  0.00  0.00  0.00  0.00  0.00
  WS02006229WS02006228    1.00   0.00  0.00  0.00  0.99  0.00  0.00  0.01  0.00  0.00
  WS02006230WS02006229    1.00   0.00  0.00  0.00  0.99  0.00  0.00  0.01  0.00  0.00
  WS02006231WS02006230    1.00   0.00  0.00  0.00  0.25  0.00  0.75  0.00  0.00  0.00
  WS02006232WS02006231    1.00   0.00  0.00  0.00  0.99  0.00  0.01  0.00  0.00  0.00
  WS02006234WS02006232    1.00   0.00  0.00  0.00  1.00  0.00  0.00  0.00  0.52  0.00
  WS02006235WS02006234    1.00   0.00  0.00  0.00  0.44  0.00  0.56  0.00  0.00  0.00
  WS02006238WS02006235    1.00   0.00  0.00  0.00  1.00  0.00  0.00  0.00  0.00  0.00
  WS02006239WS02006238    1.00   0.00  0.00  0.00  1.00  0.00  0.00  0.00  0.61  0.00
  WS02006240WS02006239    1.00   0.00  0.00  0.00  0.35  0.00  0.00  0.65  0.01  0.00
  WS02006242WS02006240    1.00   0.00  0.00  0.00  0.99  0.00  0.01  0.00  0.00  0.00
  WS02006243WS02006242    1.00   0.00  0.00  0.00  0.99  0.00  0.00  0.01  0.70  0.00
  WS02006245WS02006243    1.00   0.00  0.00  0.00  0.40  0.00  0.00  0.59  0.00  0.00
  WS02006247WS02006245    1.00   0.00  0.00  0.00  0.99  0.00  0.00  0.01  0.00  0.00
  WS02006248WS02006247    1.00   0.00  0.00  0.00  0.99  0.00  0.00  0.01  0.12  0.00
  WS02006249WS02006248    1.00   0.00  0.00  0.00  0.30  0.00  0.70  0.00  0.00  0.00
  WS02006251WS02006249    1.00   0.00  0.00  0.00  1.00  0.00  0.00  0.00  0.71  0.00
  WS02006252WS02006251    1.00   0.00  0.73  0.00  0.00  0.00  0.27  0.00  0.00  0.00
  WS02006256WS02006235    1.00   0.00  0.00  0.00  1.00  0.00  0.00  0.00  0.00  0.00
  WSF200WS02003060        1.00   0.00  0.02  0.00  0.98  0.00  0.00  0.00  0.65  0.00
  YS02001580YS02001583    1.00   0.27  0.54  0.00  0.19  0.00  0.00  0.00  0.63  0.00
  YS02001583YS02001586    1.00   0.48  0.28  0.00  0.24  0.00  0.00  0.00  0.63  0.00
  YS02001586YS02001590    1.00   0.13  0.00  0.00  0.41  0.04  0.00  0.42  0.35  0.00
  YS02001590YS02001593    1.00   0.13  0.01  0.00  0.12  0.00  0.75  0.00  0.00  0.00
  YS02001593YS02001596    1.00   0.13  0.00  0.00  0.75  0.00  0.00  0.11  0.63  0.00
  YS02001596YS02001600    1.00   0.14  0.00  0.00  0.79  0.01  0.00  0.07  0.03  0.00
  YS02001600YS02001601    1.00   0.13  0.01  0.00  0.86  0.00  0.00  0.00  0.04  0.00
  YS02001601YS02001602    1.00   0.13  0.01  0.00  0.87  0.00  0.00  0.00  0.00  0.00
  YS02001602YS02001605    1.00   0.13  0.00  0.00  0.86  0.00  0.00  0.00  0.00  0.00
  YS02001605YS02001607    1.00   0.14  0.00  0.00  0.86  0.00  0.00  0.00  0.00  0.00
  YS02001607YS02001610    1.00   0.13  0.01  0.00  0.86  0.00  0.00  0.00  0.01  0.00
  YS02001610YS02001613    1.00   0.13  0.00  0.00  0.87  0.00  0.00  0.00  0.00  0.00
  YS02001613YS02001616    1.00   0.13  0.00  0.00  0.87  0.00  0.00  0.00  0.00  0.00
  YS02001616YS02001619    1.00   0.13  0.00  0.00  0.87  0.00  0.00  0.00  0.00  0.00
  YS02001619YS02001622    1.00   0.13  0.00  0.00  0.87  0.00  0.00  0.00  0.00  0.00
  YS02001622YS02001625    1.00   0.13  0.00  0.00  0.87  0.00  0.00  0.00  0.04  0.00
  YS02001625YS02001629    1.00   0.13  0.05  0.00  0.76  0.00  0.07  0.00  0.00  0.00
  YS02001629YS02163301    1.00   0.15  0.01  0.00  0.84  0.00  0.00  0.00  0.00  0.00
  YS02001633YS02163601    1.00   0.00  0.01  0.00  0.99  0.00  0.00  0.00  0.15  0.00
  YS02001641YS02001644    1.00   0.00  0.01  0.00  0.99  0.00  0.00  0.00  0.00  0.00
  YS02001644YS02001647    1.00   0.00  0.17  0.00  0.83  0.00  0.00  0.00  0.00  0.00
  YS02001647YS02001649    1.00   0.00  0.17  0.00  0.77  0.05  0.00  0.00  0.02  0.00
  YS02001649YS02001757    1.00   0.00  0.00  0.00  0.93  0.06  0.00  0.00  0.19  0.00
  YS02001652YS02001649    1.00   0.00  0.00  0.00  0.96  0.04  0.00  0.00  0.18  0.00
  YS02001655YS02001652    1.00   0.00  0.00  0.00  0.75  0.01  0.00  0.24  0.03  0.00
  YS02001658YS02001655    1.00   0.00  0.14  0.00  0.72  0.13  0.00  0.00  0.08  0.00
  YS02001661YS02001658    1.00   0.14  0.00  0.00  0.71  0.15  0.00  0.00  0.06  0.00
  YS02001664YS02001661    1.00   0.13  0.00  0.00  0.81  0.07  0.00  0.00  0.85  0.00
  YS02001745YS02001748    1.00   0.00  0.00  0.00  0.71  0.00  0.00  0.29  0.00  0.00
  YS02001748YS02001751    1.00   0.00  0.00  0.00  0.85  0.15  0.00  0.00  0.13  0.00
  YS02001751YS02001754    1.00   0.00  0.00  0.00  0.73  0.01  0.00  0.26  0.01  0.00
  YS02001754YS02001757    1.00   0.00  0.00  0.00  1.00  0.00  0.00  0.00  0.25  0.00
  YS02001757CaochengTiaoxuchi    1.00   0.00  0.00  0.00  0.98  0.02  0.00  0.00  0.23  0.00
  YS02001759YS02001757    1.00   0.00  0.00  0.00  1.00  0.00  0.00  0.00  0.07  0.00
  YS02001762YS02001759    1.00   0.00  0.00  0.00  1.00  0.00  0.00  0.00  0.04  0.00
  YS02001765YS02001762    1.00   0.00  0.00  0.00  1.00  0.00  0.00  0.00  0.15  0.00
  YS02001767YS02001765    1.00   0.00  0.00  0.00  1.00  0.00  0.00  0.00  0.00  0.00
  YS02001770YS02001767    1.00   0.00  0.00  0.00  1.00  0.00  0.00  0.00  0.00  0.00
  YS02001774YS02001770    1.00   0.00  0.13  0.00  0.87  0.00  0.00  0.00  0.03  0.00
  YS02001779YS02001774    1.00   0.00  0.00  0.00  1.00  0.00  0.00  0.00  0.18  0.00
  YS02001783YS02001784    1.00   0.00  0.18  0.00  0.82  0.00  0.00  0.00  0.00  0.00
  YS02001784YS02001785    1.00   0.00  0.00  0.00  1.00  0.00  0.00  0.00  0.17  0.00
  YS02001786YS02001788    1.00   0.00  0.00  0.00  0.94  0.06  0.00  0.00  0.00  0.00
  YS02001788YS02001790    1.00   0.00  0.00  0.00  0.94  0.06  0.00  0.00  0.19  0.00
  YS02001790YS02001791    1.00   0.00  0.00  0.00  0.76  0.24  0.00  0.00  0.04  0.00
  YS02001791YS02001793    1.00   0.00  0.00  0.00  0.75  0.25  0.00  0.00  0.01  0.00
  YS02001793JiankangQianchi    1.00   0.00  0.00  0.00  0.93  0.06  0.00  0.00  0.22  0.00
  YS02001882YS02001884    1.00   0.15  0.01  0.00  0.84  0.00  0.00  0.00  0.00  0.00
  YS02001884YS02001887    1.00   0.06  0.05  0.00  0.89  0.00  0.00  0.00  0.00  0.00
  YS02001887YS02001890    1.00   0.00  0.00  0.00  0.97  0.00  0.03  0.00  0.00  0.00
  YS02001890YS02001895    1.00   0.00  0.16  0.00  0.83  0.00  0.00  0.00  0.00  0.00
  YS02001895YS02001898    1.00   0.17  0.00  0.00  0.81  0.00  0.02  0.00  0.00  0.00
  YS02001898YS02001901    1.00   0.17  0.00  0.00  0.83  0.00  0.00  0.00  0.01  0.00
  YS02001901YS02001904    1.00   0.17  0.00  0.00  0.83  0.00  0.00  0.00  0.00  0.00
  YS02001904YS02001907    1.00   0.00  0.16  0.00  0.83  0.00  0.00  0.00  0.00  0.00
  YS02001907YS02006553    1.00   0.00  0.02  0.00  0.98  0.00  0.00  0.00  0.00  0.00
  YS02001910YS02001907    1.00   0.00  0.00  0.00  0.97  0.00  0.00  0.03  0.12  0.00
  YS02001915YS02001910    1.00   0.00  0.00  0.00  0.97  0.03  0.00  0.00  0.16  0.00
  YS02001918YS02001915    1.00   0.00  0.01  0.00  0.98  0.02  0.00  0.00  0.76  0.00
  YS02001920YS02001918    1.00   0.00  0.01  0.00  0.99  0.00  0.00  0.00  0.00  0.00
  YS02001923YS02001920    1.00   0.00  0.00  0.00  1.00  0.00  0.00  0.00  0.93  0.00
  YS02001926YS02001923    1.00   0.00  0.07  0.00  0.06  0.00  0.87  0.00  0.00  0.00
  YS02001929YS02001926    1.00   0.00  0.13  0.00  0.87  0.00  0.00  0.00  0.83  0.00
  YS02006553YS02006556    1.00   0.01  0.00  0.00  0.99  0.00  0.00  0.00  0.03  0.00
  YS02006556YS02006558    1.00   0.00  0.00  0.00  1.00  0.00  0.00  0.00  0.00  0.00
  YS02006558YS02006561    1.00   0.18  0.00  0.00  0.07  0.75  0.00  0.00  0.18  0.00
  YS02006561YS02001783    1.00   0.18  0.00  0.00  0.74  0.08  0.00  0.00  0.72  0.00
  YS02163301YS02001633    1.00   0.00  0.15  0.00  0.85  0.00  0.00  0.00  0.00  0.00
  YS02163601YS02164001    1.00   0.00  0.08  0.00  0.92  0.00  0.00  0.00  0.00  0.00
  YS02164001YS02001641    1.00   0.01  0.07  0.00  0.92  0.00  0.00  0.00  0.05  0.00
  
  
  *************************
  Conduit Surcharge Summary
  *************************
  
  ----------------------------------------------------------------------------
                                                           Hours        Hours 
                         --------- Hours Full --------   Above Full   Capacity
  Conduit                Both Ends  Upstream  Dnstream   Normal Flow   Limited
  ----------------------------------------------------------------------------
  WS02003072WS02003073        0.01      0.01      0.01      2.39         0.01
  WS02004404WS02004405        0.01      0.01      0.01      2.24         0.01
  WS02006109WS02006110        0.01      0.01      1.90      0.01         0.01
  WS02006110WS02006113        0.01      0.01      1.88      0.01         0.01
  WS02006111WS02006112        0.01      0.01      1.95      0.01         0.01
  WS02006228WS02006109        1.85      1.90      1.85      2.06         1.85
  WS02006229WS02006228        1.84      1.86      1.84      2.00         1.84
  WS02006230WS02006229        1.95      1.98      1.95      2.51         1.95
  WS02006231WS02006230        0.01      0.01      0.01      2.36         0.01
  WS02006232WS02006231        0.01      0.01      1.91      0.01         0.01
  WS02006234WS02006232        1.81      1.81      1.91      0.01         0.01
  WS02006235WS02006234        0.01      0.01      1.86      2.28         0.01
  WS02006238WS02006235        1.87      1.87      1.92      0.01         0.01
  WS02006239WS02006238        1.88      1.91      1.88      2.04         1.88
  WS02006240WS02006239        1.86      1.88      1.86      2.06         1.86
  WS02006242WS02006240        1.86      1.86      1.97      2.11         0.01
  WS02006243WS02006242        1.89      1.89      1.94      0.01         0.01
  WS02006245WS02006243        1.88      1.89      1.88      2.10         1.88
  WS02006247WS02006245        1.88      1.91      1.88      2.17         1.88
  WS02006248WS02006247        1.88      1.88      1.90      0.01         0.01
  WS02006249WS02006248        1.88      1.88      1.89      2.16         0.01
  WS02006251WS02006249        1.89      1.90      1.89      2.15         1.89
  WS02006252WS02006251        2.17      2.17      2.17      2.17         0.01
  WS02006256WS02006235        2.32      2.32      3.08      0.02         0.01
  YS02001580YS02001583        0.53      0.53      0.57      0.01         0.01
  YS02001583YS02001586        0.53      0.53      0.69      0.01         0.01
  YS02001586YS02001590        0.70      0.70      0.78      0.01         0.01
  YS02001590YS02001593        0.79      0.79      0.81      0.77         0.01
  YS02001593YS02001596        0.80      0.80      0.93      0.01         0.01
  YS02001596YS02001600        1.00      1.00      1.30      0.01         0.01
  YS02001600YS02001601        5.93      5.93      6.16      0.01         0.01
  YS02001601YS02001602        6.09      6.09      6.19      0.99         0.01
  YS02001602YS02001605        6.06      6.06      6.09      2.18         0.04
  YS02001605YS02001607        6.01      6.06      6.01      1.24         1.09
  YS02001607YS02001610        0.97      0.97      1.32      0.01         0.01
  YS02001610YS02001613        0.98      0.98      1.32      0.01         0.01
  YS02001613YS02001616        0.87      0.87      0.98      0.01         0.01
  YS02001616YS02001619        0.86      0.86      0.87      0.01         0.01
  YS02001619YS02001622        0.86      0.86      0.87      0.61         0.53
  YS02001622YS02001625        0.87      0.87      5.84      0.01         0.01
  YS02001625YS02001629        0.83      0.83      5.84      0.01         0.01
  YS02001629YS02163301        5.84      5.84      5.85      0.09         0.08
  YS02001633YS02163601        5.86      5.86      5.87      0.13         0.14
  YS02001641YS02001644        5.80      5.82      5.80      1.29         0.89
  YS02001644YS02001647        5.72      5.72      5.80      0.01         0.01
  YS02001647YS02001649        5.72      5.72      5.72      0.01         0.01
  YS02001649YS02001757        5.72      5.72      5.72      0.11         0.06
  YS02001652YS02001649        5.70      5.70      5.72      0.01         0.01
  YS02001655YS02001652        0.74      0.74      5.70      0.01         0.01
  YS02001658YS02001655        0.22      0.22      0.74      0.01         0.01
  YS02001661YS02001658        0.03      0.03      0.22      0.01         0.01
  YS02001664YS02001661        0.01      0.01      0.07      0.01         0.01
  YS02001745YS02001748        0.01      0.01      0.16      0.01         0.01
  YS02001748YS02001751        0.20      0.20      0.67      0.01         0.01
  YS02001751YS02001754        0.67      0.67      5.69      0.01         0.01
  YS02001754YS02001757        5.69      5.69      5.72      0.01         0.01
  YS02001757CaochengTiaoxuchi        5.72      5.72      5.75      0.28         0.25
  YS02001759YS02001757        5.71      5.71      5.72      0.01         0.01
  YS02001762YS02001759        5.71      5.71      5.71      0.01         0.01
  YS02001765YS02001762        5.70      5.70      5.71      0.01         0.01
  YS02001767YS02001765        5.70      5.70      5.70      0.01         0.01
  YS02001770YS02001767        5.70      5.70      5.70      0.43         0.36
  YS02001774YS02001770        5.70      5.70      5.70      0.01         0.01
  YS02001779YS02001774        5.69      5.69      5.70      0.01         0.01
  YS02001783YS02001784        0.68      0.68      0.70      0.53         0.55
  YS02001784YS02001785        0.68      0.70      0.68      0.80         0.68
  YS02001786YS02001788        0.68      0.68      0.68      0.74         0.68
  YS02001788YS02001790        0.68      0.68      5.95      0.01         0.01
  YS02001790YS02001791        5.95      5.95      5.96      0.34         0.33
  YS02001791YS02001793        5.96      5.96      6.01      0.01         0.01
  YS02001793JiankangQianchi        5.99      5.99      6.28      0.01         0.01
  YS02001882YS02001884        0.44      0.44      0.45      0.01         0.01
  YS02001884YS02001887        0.47      0.47      0.48      0.01         0.01
  YS02001887YS02001890        0.49      0.49      0.50      0.09         0.01
  YS02001890YS02001895        0.43      0.43      0.52      0.01         0.01
  YS02001895YS02001898        0.42      0.42      0.43      0.01         0.01
  YS02001898YS02001901        0.43      0.43      0.47      0.01         0.01
  YS02001901YS02001904        0.46      0.46      0.47      0.01         0.01
  YS02001904YS02001907        0.46      0.46      0.71      0.01         0.01
  YS02001907YS02006553        0.83      0.83      0.89      0.01         0.01
  YS02001910YS02001907        0.52      0.52      0.69      0.01         0.01
  YS02001915YS02001910        0.43      0.43      0.52      0.01         0.01
  YS02001918YS02001915        0.35      0.35      0.43      0.01         0.01
  YS02001920YS02001918        0.35      0.35      0.36      0.01         0.01
  YS02001923YS02001920        0.30      0.30      0.36      0.01         0.01
  YS02001926YS02001923        0.04      0.04      0.09      0.01         0.01
  YS02001929YS02001926        0.01      0.01      0.09      0.01         0.01
  YS02006553YS02006556        0.61      0.61      0.71      0.01         0.01
  YS02006556YS02006558        0.65      0.65      0.72      0.01         0.01
  YS02006558YS02006561        0.47      0.59      0.47      0.78         0.47
  YS02006561YS02001783        0.39      0.39      0.68      0.01         0.01
  YS02163301YS02001633        5.85      5.85      5.86      0.01         0.01
  YS02163601YS02164001        5.82      5.82      5.87      0.10         0.01
  YS02164001YS02001641        5.82      5.82      5.82      0.50         0.40
  
  
  ***************
  Pumping Summary
  ***************
  
  ---------------------------------------------------------------------------------------------------------
                                                  Min       Avg       Max     Total     Power    % Time Off
                        Percent   Number of      Flow      Flow      Flow    Volume     Usage    Pump Curve
  Pump                 Utilized   Start-Ups       LPS       LPS       LPS  10^6 ltr     Kw-hr    Low   High
  ---------------------------------------------------------------------------------------------------------
  CC-R1                    1.06           1      0.00    683.00    683.00     0.208      3.51    0.0  100.0
  CC-R2                    1.06           1      0.00    683.00    683.00     0.208      3.51    0.0  100.0
  CC-S1                   27.17           2      0.00    200.00    200.00     1.565      7.95    0.0   41.6
  CC-S2                   27.17           2      0.00    200.00    200.00     1.565      7.95    0.0   41.6
  JK-R1                    0.97           2      0.00    347.46   1000.00     0.078      0.47    0.0    0.0
  JK-R2                    0.97           2      0.00    347.46   1000.00     0.078      0.47    0.0    0.0
  JK-S                     0.97           2      0.00    104.30    300.00     0.023      0.44    0.0    0.0
  XR-1                   100.00           1      0.00     95.00     95.00     2.736     68.18    0.0    0.0
  XR-2                   100.00           1      0.00     95.00     95.00     2.736     68.18    0.0    0.0
  XR-3                   100.00           1      0.00     95.00     95.00     2.736     68.18    0.0    0.0
  XR-4                   100.00           1      0.00     95.00     95.00     2.736     68.18    0.0    0.0
  

  Analysis begun on:  Wed Nov  5 16:29:10 2025
  Analysis ended on:  Wed Nov  5 16:29:13 2025
  Total elapsed time: 00:00:03