
  EPA STORM WATER MANAGEMENT MODEL - VERSION 5.2 (Build 5.2.4)
  PYSWMM TOOLKIT API - VERSION v1.0 (2023-11-27)
  ------------------------------------------------------------

  WARNING 04: minimum elevation drop used for Conduit WS02004404WS02004405
  WARNING 03: negative offset ignored for Link YS02001904YS02001907
  
  ****************
  Analysis Options
  ****************
  Flow Units ............... LPS
  Process Models:
    Rainfall/Runoff ........ YES
    RDII ................... NO
    Snowmelt ............... NO
    Groundwater ............ NO
    Flow Routing ........... YES
    Ponding Allowed ........ NO
    Water Quality .......... NO
  Infiltration Method ...... HORTON
  Flow Routing Method ...... DYNWAVE
  Surcharge Method ......... EXTRAN
  Starting Date ............ 08/28/2015 08:00:00
  Ending Date .............. 08/28/2015 16:00:00
  Antecedent Dry Days ...... 8.0
  Report Time Step ......... 00:01:00
  Wet Time Step ............ 00:01:00
  Dry Time Step ............ 00:01:00
  Routing Time Step ........ 30.00 sec
  Variable Time Step ....... YES
  Maximum Trials ........... 8
  Number of Threads ........ 4
  Head Tolerance ........... 0.001500 m
  
  
  **************************        Volume         Depth
  Runoff Quantity Continuity     hectare-m            mm
  **************************     ---------       -------
  Initial LID Storage ......         0.049         1.488
  Total Precipitation ......         1.882        56.725
  Evaporation Loss .........         0.000         0.000
  Infiltration Loss ........         0.078         2.361
  Surface Runoff ...........         1.381        41.637
  Final Storage ............         0.472        14.237
  Continuity Error (%) .....        -0.040
  
  
  **************************        Volume        Volume
  Flow Routing Continuity        hectare-m      10^6 ltr
  **************************     ---------     ---------
  Dry Weather Inflow .......         0.602         6.020
  Wet Weather Inflow .......         1.381        13.811
  Groundwater Inflow .......         0.000         0.000
  RDII Inflow ..............         0.000         0.000
  External Inflow ..........         0.105         1.045
  External Outflow .........         1.531        15.310
  Flooding Loss ............         0.491         4.910
  Evaporation Loss .........         0.000         0.000
  Exfiltration Loss ........         0.000         0.000
  Initial Stored Volume ....         0.303         3.031
  Final Stored Volume ......         0.824         8.237
  Continuity Error (%) .....       -19.031
  
  
  *************************
  Highest Continuity Errors
  *************************
  Node YS02001774 (45.72%)
  Node WS02006256 (-6.05%)
  Node YS02001583 (-5.06%)
  Node YS02001884 (4.55%)
  Node YS02001754 (4.48%)
  
  
  ***************************
  Time-Step Critical Elements
  ***************************
  Link WS02001212WS02001213 (34.55%)
  Link WS02006235WS02006234 (24.32%)
  Link WS02006238WS02006235 (14.48%)
  Link YS02006556YS02006558 (6.65%)
  Link WS02003066WSF200 (5.56%)
  
  
  ********************************
  Highest Flow Instability Indexes
  ********************************
  Link WS02006113WS02006111 (42)
  Link WS02006238WS02006235 (35)
  Link WS02006111WS02006112 (35)
  Link WS02006256WS02006235 (31)
  Link WS02006239WS02006238 (26)
  
  
  *********************************
  Most Frequent Nonconverging Nodes
  *********************************
  Node CC-1 (10.43%)
  Node CC-2 (10.43%)
  Node JK-1 (10.43%)
  Node JK-2 (10.43%)
  Node WSC (10.43%)
  
  
  *************************
  Routing Time Step Summary
  *************************
  Minimum Time Step           :     0.01 sec
  Average Time Step           :     3.80 sec
  Maximum Time Step           :     6.46 sec
  % of Time in Steady State   :     0.00
  Average Iterations per Step :     3.35
  % of Steps Not Converging   :    10.43
  Time Step Frequencies       :
     30.000 - 13.228 sec      :     0.00 %
     13.228 -  5.833 sec      :    33.38 %
      5.833 -  2.572 sec      :    40.63 %
      2.572 -  1.134 sec      :    19.61 %
      1.134 -  0.500 sec      :     6.38 %
  
  
  ***************************
  Subcatchment Runoff Summary
  ***************************
  
  ------------------------------------------------------------------------------------------------------------------------------
                            Total      Total      Total      Total     Imperv       Perv      Total       Total     Peak  Runoff
                           Precip      Runon       Evap      Infil     Runoff     Runoff     Runoff      Runoff   Runoff   Coeff
  Subcatchment                 mm         mm         mm         mm         mm         mm         mm    10^6 ltr      LPS
  ------------------------------------------------------------------------------------------------------------------------------
  sub60                     56.72       0.00       0.00       1.39      37.60       3.86      41.46        0.54   330.05   0.731
  sub61                     56.72       0.00       0.00       2.14      37.56       5.74      43.30        0.79   483.01   0.763
  sub62                     56.72       0.00       0.00       0.95      40.04       2.62      42.67        1.17   666.27   0.752
  sub63                     56.72       0.00       0.00       3.95      32.17       9.52      41.69        0.95   558.17   0.735
  sub64                     56.72       0.00       0.00       1.89      36.63       4.74      41.37        0.99   548.96   0.729
  sub65                     56.72       0.00       0.00       1.74      39.53       4.32      43.86        1.21   643.30   0.773
  sub66                     56.72       0.00       0.00       4.63      31.10       8.42      39.52        1.84   867.42   0.697
  sub67                     56.72       0.00       0.00       0.94      41.06       2.72      43.78        0.81   506.06   0.772
  sub68                     56.72       0.00       0.00       1.64      36.26       4.40      40.66        1.12   661.86   0.717
  sub69                     56.72       0.00       0.00       1.52      38.13       5.22      43.35        1.60   831.10   0.764
  sub70                     56.72       0.00       0.00       5.11      30.54      10.68      41.22        1.19   503.98   0.727
  sub71                     56.72       0.00       0.00       0.88      36.37       2.37      38.74        1.01   553.11   0.683
  sub72                     56.72       0.00       0.00       0.84      39.29       2.20      41.49        0.57   289.16   0.731
  

  ***********************
  LID Performance Summary
  ***********************

  --------------------------------------------------------------------------------------------------------------------
                                         Total      Evap     Infil   Surface    Drain    Initial     Final  Continuity
                                        Inflow      Loss      Loss   Outflow   Outflow   Storage   Storage       Error
  Subcatchment      LID Control             mm        mm        mm        mm        mm        mm        mm           %
  --------------------------------------------------------------------------------------------------------------------
  sub60             GreenRoof            56.72      0.00      0.00      0.00      0.00      7.05     63.85       -0.12
  sub61             GreenRoof            56.72      0.00      0.00      0.00      0.00      7.05     63.85       -0.12
  sub62             GreenRoof            56.72      0.00      0.00      0.00      0.00      7.05     63.85       -0.12
  sub63             GreenRoof            56.72      0.00      0.00      0.00      0.00      7.05     63.85       -0.12
  sub64             GreenRoof            56.72      0.00      0.00      0.00      0.00      7.05     63.85       -0.12
  sub65             GreenRoof            56.72      0.00      0.00      0.00      0.00      7.05     63.85       -0.12
  sub66             GreenRoof            56.72      0.00      0.00      0.00      0.00      7.05     63.85       -0.12
  sub67             GreenRoof            56.72      0.00      0.00      0.00      0.00      7.05     63.85       -0.12
  sub68             GreenRoof            56.72      0.00      0.00      0.00      0.00      7.05     63.85       -0.12
  sub69             GreenRoof            56.72      0.00      0.00      0.00      0.00      7.05     63.85       -0.12
  sub70             GreenRoof            56.72      0.00      0.00      0.00      0.00      7.05     63.85       -0.12
  sub71             GreenRoof            56.72      0.00      0.00      0.00      0.00      7.05     63.85       -0.12
  sub72             GreenRoof            56.72      0.00      0.00      0.00      0.00      7.05     63.85       -0.12
  
  ******************
  Node Depth Summary
  ******************
  
  ---------------------------------------------------------------------------------
                                 Average  Maximum  Maximum  Time of Max    Reported
                                   Depth    Depth      HGL   Occurrence   Max Depth
  Node                 Type       Meters   Meters   Meters  days hr:min      Meters
  ---------------------------------------------------------------------------------
  WS02001211           JUNCTION     0.76     0.78     5.62     0  02:54        0.78
  WS02001212           JUNCTION     0.46     0.49     5.55     0  02:49        0.49
  WS02001213           JUNCTION     0.69     0.73     5.49     0  02:49        0.73
  WS02003059           JUNCTION     0.73     0.78     5.47     0  02:48        0.78
  WS02003060           JUNCTION     0.39     0.47     5.41     0  02:48        0.47
  WS02003066           JUNCTION     0.16     0.27     5.82     0  02:47        0.27
  WS02003067           JUNCTION     0.44     0.65     5.97     0  02:47        0.65
  WS02003069           JUNCTION     0.43     0.54     5.12     0  02:48        0.54
  WS02003072           JUNCTION     0.50     0.60     4.97     0  02:52        0.60
  WS02003073           JUNCTION     0.30     0.37     4.43     0  02:53        0.37
  WS02004138           JUNCTION     0.19     0.20     7.45     0  00:00        0.19
  WS02004139           JUNCTION     0.71     0.73     5.64     0  02:51        0.73
  WS02004401           JUNCTION     0.52     0.75     6.75     0  03:10        0.75
  WS02004402           JUNCTION     0.56     0.78     6.74     0  02:10        0.78
  WS02004403           JUNCTION     0.58     0.80     6.73     0  03:11        0.80
  WS02004404           JUNCTION     0.65     0.88     6.73     0  03:11        0.88
  WS02004405           JUNCTION     0.65     0.88     6.73     0  03:11        0.88
  WS02004406           JUNCTION     0.66     0.88     6.71     0  02:11        0.88
  WS02004407           JUNCTION     0.14     0.26     6.57     0  02:11        0.26
  WS02004409           JUNCTION     0.32     0.58     6.35     0  02:49        0.58
  WS02004410           JUNCTION     0.34     0.59     6.31     0  02:49        0.59
  WS02004411           JUNCTION     0.37     0.61     6.29     0  02:46        0.61
  WS02004412           JUNCTION     0.39     0.62     6.26     0  02:50        0.62
  WS02004413           JUNCTION     0.54     0.79     6.26     0  02:47        0.79
  WS02006109           JUNCTION     0.58     0.83     7.45     0  02:43        0.83
  WS02006110           JUNCTION     0.59     0.82     7.41     0  02:42        0.82
  WS02006111           JUNCTION     0.15     0.25     6.96     0  03:09        0.25
  WS02006112           JUNCTION     0.67     0.93     6.82     0  03:09        0.93
  WS02006113           JUNCTION     0.22     0.39     7.29     0  02:38        0.39
  WS02006115           JUNCTION     0.41     0.65     6.78     0  03:10        0.65
  WS02006116           JUNCTION     0.49     0.73     6.77     0  03:10        0.73
  WS02006228           JUNCTION     0.56     0.84     7.49     0  02:09        0.84
  WS02006229           JUNCTION     0.54     0.83     7.53     0  01:39        0.82
  WS02006230           JUNCTION     0.53     0.86     7.60     0  02:37        0.86
  WS02006231           JUNCTION     0.32     0.60     7.72     0  02:37        0.60
  WS02006232           JUNCTION     0.44     0.75     7.79     0  02:10        0.75
  WS02006234           JUNCTION     0.36     0.71     7.87     0  02:36        0.71
  WS02006235           JUNCTION     0.39     0.76     7.93     0  02:59        0.76
  WS02006238           JUNCTION     0.42     0.81     7.95     0  02:37        0.80
  WS02006239           JUNCTION     0.40     0.81     8.02     0  03:05        0.80
  WS02006240           JUNCTION     0.39     0.79     8.08     0  02:36        0.79
  WS02006242           JUNCTION     0.46     0.91     8.18     0  02:23        0.90
  WS02006243           JUNCTION     0.40     0.85     8.27     0  02:37        0.84
  WS02006245           JUNCTION     0.40     0.86     8.34     0  02:21        0.85
  WS02006247           JUNCTION     0.42     0.89     8.39     0  02:56        0.89
  WS02006248           JUNCTION     0.40     0.86     8.44     0  02:36        0.85
  WS02006249           JUNCTION     0.42     1.08     8.68     0  02:36        1.08
  WS02006251           JUNCTION     0.42     0.91     8.58     0  02:36        0.91
  WS02006252           JUNCTION     0.28     1.50     9.74     0  00:00        0.59
  WS02006256           JUNCTION     0.63     2.35     9.28     0  00:00        2.35
  WSF200               JUNCTION     0.13     0.25     5.48     0  02:47        0.25
  YS02001580           JUNCTION     0.09     1.05     9.59     0  02:16        0.77
  YS02001583           JUNCTION     0.11     1.00     9.50     0  02:16        0.82
  YS02001586           JUNCTION     0.20     1.13     9.30     0  02:16        1.13
  YS02001590           JUNCTION     0.30     1.40     9.26     0  02:16        1.37
  YS02001593           JUNCTION     0.24     1.33     9.19     0  02:16        1.28
  YS02001596           JUNCTION     0.49     1.72     9.14     0  02:42        1.72
  YS02001600           JUNCTION     0.70     1.87     9.00     0  02:16        1.87
  YS02001601           JUNCTION     0.95     2.06     8.90     0  02:15        2.06
  YS02001602           JUNCTION     0.86     1.87     8.77     0  02:19        1.87
  YS02001605           JUNCTION     0.83     1.78     8.68     0  02:36        1.78
  YS02001607           JUNCTION     0.82     1.68     8.53     0  02:36        1.68
  YS02001610           JUNCTION     0.86     1.68     8.48     0  02:20        1.68
  YS02001613           JUNCTION     0.82     1.68     8.52     0  02:42        1.68
  YS02001616           JUNCTION     0.75     1.61     8.52     0  02:20        1.61
  YS02001619           JUNCTION     0.74     1.61     8.54     0  02:20        1.61
  YS02001622           JUNCTION     0.74     1.62     8.52     0  02:42        1.62
  YS02001625           JUNCTION     0.99     1.78     8.38     0  02:20        1.78
  YS02001629           JUNCTION     1.00     1.85     8.40     0  02:20        1.85
  YS02001633           JUNCTION     1.08     2.04     8.50     0  02:42        2.04
  YS02001641           JUNCTION     1.06     2.02     8.45     0  02:42        2.02
  YS02001644           JUNCTION     1.06     1.92     8.35     0  02:23        1.92
  YS02001647           JUNCTION     0.86     1.71     8.32     0  02:24        1.71
  YS02001649           JUNCTION     1.01     1.88     8.27     0  02:24        1.86
  YS02001652           JUNCTION     0.84     1.69     8.29     0  02:24        1.66
  YS02001655           JUNCTION     0.66     1.52     8.37     0  02:23        1.43
  YS02001658           JUNCTION     0.46     1.36     8.50     0  02:23        1.16
  YS02001661           JUNCTION     0.31     0.91     8.31     0  02:24        0.90
  YS02001664           JUNCTION     0.06     0.32     8.24     0  02:24        0.31
  YS02001745           JUNCTION     0.21     0.68     8.19     0  02:24        0.68
  YS02001748           JUNCTION     0.49     1.34     8.41     0  02:24        1.08
  YS02001751           JUNCTION     0.62     1.42     8.30     0  02:24        1.28
  YS02001754           JUNCTION     0.80     1.62     8.23     0  02:24        1.54
  YS02001757           JUNCTION     1.08     1.91     8.17     0  02:24        1.88
  YS02001759           JUNCTION     1.00     1.87     8.23     0  02:24        1.85
  YS02001762           JUNCTION     0.97     1.86     8.26     0  02:24        1.83
  YS02001765           JUNCTION     0.93     1.83     8.28     0  02:24        1.81
  YS02001767           JUNCTION     0.91     1.82     8.31     0  02:24        1.79
  YS02001770           JUNCTION     0.92     1.86     8.36     0  02:23        1.83
  YS02001774           JUNCTION     0.98     1.94     8.37     0  02:23        1.91
  YS02001779           JUNCTION     0.75     1.68     8.37     0  02:20        1.68
  YS02001783           JUNCTION     0.49     1.51     7.65     0  02:21        1.48
  YS02001784           JUNCTION     0.53     1.45     7.52     0  02:21        1.42
  YS02001786           JUNCTION     0.53     1.40     7.43     0  02:36        1.40
  YS02001788           JUNCTION     0.53     1.23     7.21     0  02:36        1.23
  YS02001790           JUNCTION     0.76     1.32     6.97     0  02:36        1.32
  YS02001791           JUNCTION     0.85     1.35     6.82     0  02:36        1.35
  YS02001793           JUNCTION     1.29     1.87     6.70     0  02:36        1.87
  YS02001882           JUNCTION     0.31     1.83     8.55     0  02:36        1.83
  YS02001884           JUNCTION     0.40     1.93     8.55     0  02:36        1.93
  YS02001887           JUNCTION     0.47     1.83     8.37     0  02:36        1.80
  YS02001890           JUNCTION     0.50     1.81     8.32     0  02:21        1.81
  YS02001895           JUNCTION     0.28     1.75     8.50     0  02:36        1.75
  YS02001898           JUNCTION     0.29     1.65     8.38     0  02:36        1.65
  YS02001901           JUNCTION     0.40     1.69     8.30     0  02:21        1.67
  YS02001904           JUNCTION     0.38     1.65     8.28     0  02:21        1.63
  YS02001907           JUNCTION     0.69     1.96     8.25     0  02:21        1.96
  YS02001910           JUNCTION     0.49     1.97     8.48     0  02:21        1.81
  YS02001915           JUNCTION     0.31     1.92     8.64     0  02:21        1.64
  YS02001918           JUNCTION     0.16     1.81     8.88     0  02:21        1.33
  YS02001920           JUNCTION     0.24     2.04     9.05     0  02:21        1.41
  YS02001923           JUNCTION     0.11     1.92     9.18     0  02:21        1.26
  YS02001926           JUNCTION     0.15     1.82     9.26     0  02:21        1.14
  YS02001929           JUNCTION     0.08     1.76     9.45     0  02:21        1.00
  YS02006553           JUNCTION     0.69     1.97     8.26     0  02:21        1.96
  YS02006556           JUNCTION     0.66     1.95     8.26     0  02:21        1.94
  YS02006558           JUNCTION     0.71     1.99     8.26     0  02:21        1.98
  YS02006561           JUNCTION     0.17     1.12     7.78     0  02:21        1.09
  YS02163301           JUNCTION     1.03     1.92     8.44     0  02:42        1.92
  YS02163601           JUNCTION     1.12     2.08     8.48     0  02:42        2.08
  YS02164001           JUNCTION     1.05     2.03     8.48     0  02:42        2.03
  CC-1                 OUTFALL      0.00     0.00     0.00     0  00:00        0.00
  CC-2                 OUTFALL      0.00     0.00     0.00     0  00:00        0.00
  JK-1                 OUTFALL      0.00     0.00     0.00     0  00:00        0.00
  JK-2                 OUTFALL      0.00     0.00     0.00     0  00:00        0.00
  WSC                  OUTFALL      0.30     0.37     1.04     0  02:53        0.37
  CC-storage           STORAGE      1.64     2.30     7.80     0  03:00        2.30
  JK-storage           STORAGE      4.40     5.80     6.60     0  02:03        5.80
  XR-storage           STORAGE      0.31     5.00     3.00     0  00:00        4.91
  
  
  *******************
  Node Inflow Summary
  *******************
  
  -------------------------------------------------------------------------------------------------
                                  Maximum  Maximum                  Lateral       Total        Flow
                                  Lateral    Total  Time of Max      Inflow      Inflow     Balance
                                   Inflow   Inflow   Occurrence      Volume      Volume       Error
  Node                 Type           LPS      LPS  days hr:min    10^6 ltr    10^6 ltr     Percent
  -------------------------------------------------------------------------------------------------
  WS02001211           JUNCTION      7.35   389.12     0  03:43       0.212        11.1       0.348
  WS02001212           JUNCTION      0.00   390.85     0  03:46           0        11.1       0.207
  WS02001213           JUNCTION      0.00   392.60     0  03:45           0        11.1       0.238
  WS02003059           JUNCTION      0.00   395.63     0  03:45           0          11       0.328
  WS02003060           JUNCTION     16.53   816.16     0  02:47       0.476        14.8       0.146
  WS02003066           JUNCTION      0.00   411.96     0  02:47           0        3.31       0.037
  WS02003067           JUNCTION      0.00   411.95     0  02:47           0        3.32       0.120
  WS02003069           JUNCTION      0.32   816.42     0  02:48     0.00922        14.8       0.154
  WS02003072           JUNCTION      0.00   816.39     0  02:52           0        14.7       0.201
  WS02003073           JUNCTION      1.82   818.21     0  02:53      0.0524        14.8       0.216
  WS02004138           JUNCTION      0.00   380.00     0  00:00           0        10.9       0.059
  WS02004139           JUNCTION      0.32   395.52     0  00:00     0.00924        10.9       0.407
  WS02004401           JUNCTION      0.00   412.38     0  02:10           0        3.41       0.290
  WS02004402           JUNCTION      0.00   412.29     0  02:10           0         3.4       0.296
  WS02004403           JUNCTION      0.00   412.26     0  02:10           0        3.39       0.290
  WS02004404           JUNCTION      0.16   412.39     0  02:10     0.00467        3.39       0.243
  WS02004405           JUNCTION      0.04   412.40     0  02:11      0.0011        3.38       0.362
  WS02004406           JUNCTION      0.00   412.36     0  02:11           0        3.37       0.605
  WS02004407           JUNCTION      0.00   412.21     0  02:11           0        3.35       0.027
  WS02004409           JUNCTION      0.00   412.14     0  02:11           0        3.35       0.064
  WS02004410           JUNCTION      0.00   412.10     0  02:12           0        3.35       0.116
  WS02004411           JUNCTION      0.00   412.05     0  02:12           0        3.34       0.153
  WS02004412           JUNCTION      0.00   412.03     0  02:12           0        3.34       0.210
  WS02004413           JUNCTION      0.00   412.05     0  02:46           0        3.33       0.376
  WS02006109           JUNCTION      1.23   411.78     0  02:38      0.0354        3.46       0.227
  WS02006110           JUNCTION      0.00   411.78     0  02:38           0        3.45       0.180
  WS02006111           JUNCTION      0.00   423.78     0  02:09           0        3.44       0.024
  WS02006112           JUNCTION      0.00   414.04     0  03:09           0        3.44       0.507
  WS02006113           JUNCTION      0.00   412.07     0  03:10           0        3.45       0.040
  WS02006115           JUNCTION      0.00   412.68     0  03:09           0        3.43       0.181
  WS02006116           JUNCTION      0.00   412.45     0  02:10           0        3.42       0.132
  WS02006228           JUNCTION      0.00   410.55     0  02:38           0        3.43       0.083
  WS02006229           JUNCTION      0.00   410.55     0  02:38           0        3.43       0.133
  WS02006230           JUNCTION     10.28   410.56     0  02:51       0.296        3.44       0.175
  WS02006231           JUNCTION      0.00   400.38     0  02:36           0        3.14      -0.102
  WS02006232           JUNCTION      0.00   400.38     0  02:37           0        3.15       0.262
  WS02006234           JUNCTION      0.00   401.40     0  02:36           0        3.14      -0.173
  WS02006235           JUNCTION      0.00   401.92     0  02:36           0        3.16       0.232
  WS02006238           JUNCTION      0.00   401.29     0  02:15           0        3.13      -0.211
  WS02006239           JUNCTION      0.00   401.07     0  02:36           0        3.12      -0.152
  WS02006240           JUNCTION      0.00   401.61     0  02:36           0        3.12      -0.043
  WS02006242           JUNCTION      0.00   401.76     0  02:23           0        3.12       0.010
  WS02006243           JUNCTION      0.00   402.34     0  02:36           0        3.12       0.027
  WS02006245           JUNCTION      0.00   403.49     0  02:56           0        3.13       0.310
  WS02006247           JUNCTION      0.00   401.16     0  02:14           0        3.13       0.013
  WS02006248           JUNCTION      0.00   405.08     0  02:36           0        3.13       0.091
  WS02006249           JUNCTION      0.00   458.97     0  00:00           0        3.14       0.221
  WS02006251           JUNCTION      0.08   401.18     0  02:23     0.00222        3.14      -0.003
  WS02006252           JUNCTION      0.00   400.00     0  00:00           0        3.13      -0.030
  WS02006256           JUNCTION      0.00   300.00     0  00:00           0      0.0242      -5.704
  WSF200               JUNCTION      0.00   411.95     0  02:47           0        3.31       0.016
  YS02001580           JUNCTION      0.00    69.56     0  02:15           0     0.00408       2.820
  YS02001583           JUNCTION      0.00   121.40     0  02:15           0      0.0152      -4.816
  YS02001586           JUNCTION    503.98   503.98     0  02:26        1.19         1.2       0.077
  YS02001590           JUNCTION      0.00   320.20     0  02:36           0        1.09       0.036
  YS02001593           JUNCTION      0.00   320.07     0  02:36           0        1.09       0.038
  YS02001596           JUNCTION      0.00   318.07     0  02:31           0        1.09       0.331
  YS02001600           JUNCTION      0.00   318.36     0  02:36           0        1.09       0.752
  YS02001601           JUNCTION    831.10  1148.79     0  02:25         1.6        2.68       0.338
  YS02001602           JUNCTION      0.00   489.77     0  02:15           0        1.98       0.473
  YS02001605           JUNCTION      0.00   490.02     0  02:15           0        1.89       0.744
  YS02001607           JUNCTION      0.00   489.93     0  02:15           0        1.87       1.154
  YS02001610           JUNCTION      0.00   491.28     0  02:14           0        1.86       1.254
  YS02001613           JUNCTION      0.00   491.25     0  02:14           0        1.61       1.517
  YS02001616           JUNCTION      0.00   489.35     0  02:14           0        1.59       1.383
  YS02001619           JUNCTION    867.42   929.66     0  02:19        1.84        3.41       0.636
  YS02001622           JUNCTION      0.00   927.82     0  02:19           0        3.38       0.873
  YS02001625           JUNCTION      0.00   973.66     0  02:27           0        3.37       1.346
  YS02001629           JUNCTION      0.00   928.21     0  02:19           0        2.83       0.822
  YS02001633           JUNCTION    643.50  1326.97     0  02:19        1.21        3.97       0.819
  YS02001641           JUNCTION      0.00  1324.12     0  02:19           0        3.88       0.555
  YS02001644           JUNCTION    549.00  1673.42     0  02:20       0.995        4.85       0.541
  YS02001647           JUNCTION      0.00  1674.51     0  02:20           0        4.79       0.591
  YS02001649           JUNCTION      0.00  1862.15     0  02:19           0        5.66       0.666
  YS02001652           JUNCTION      0.00   565.52     0  02:25           0       0.922       2.575
  YS02001655           JUNCTION      0.15   566.94     0  02:25     0.00443       0.945       2.462
  YS02001658           JUNCTION      0.00   565.10     0  02:25           0       0.957       1.580
  YS02001661           JUNCTION      0.00   588.06     0  02:24           0       0.956       0.755
  YS02001664           JUNCTION    558.17   558.17     0  02:25       0.946       0.946      -0.043
  YS02001745           JUNCTION    330.06   330.06     0  02:25       0.545       0.574       0.801
  YS02001748           JUNCTION      0.04   435.89     0  02:24      0.0013       0.583       2.419
  YS02001751           JUNCTION      0.01   348.49     0  02:24    0.000317       0.552       3.997
  YS02001754           JUNCTION      0.26   349.34     0  02:24     0.00749       0.541       4.693
  YS02001757           JUNCTION      0.00  3019.71     0  02:24           0        7.93       1.183
  YS02001759           JUNCTION    483.05  1148.92     0  02:25       0.796        1.83       1.249
  YS02001762           JUNCTION      0.00   669.37     0  02:25           0        1.06       2.041
  YS02001765           JUNCTION      0.00   668.56     0  02:25           0        1.08       2.312
  YS02001767           JUNCTION      0.54   668.64     0  02:25      0.0154        1.12       3.295
  YS02001770           JUNCTION    666.42   667.19     0  02:25        1.17        1.18       2.736
  YS02001774           JUNCTION      0.00   241.55     0  02:20           0      0.0549      84.242
  YS02001779           JUNCTION      0.01   244.01     0  02:20    0.000144       0.021     237.103
  YS02001783           JUNCTION      0.00   974.16     0  02:23           0        3.12       0.226
  YS02001784           JUNCTION      1.06   974.68     0  02:23      0.0305        3.14       0.332
  YS02001786           JUNCTION      0.06   974.44     0  02:23     0.00162        3.13       0.426
  YS02001788           JUNCTION      0.07   974.76     0  02:24     0.00204        3.12       0.431
  YS02001790           JUNCTION      0.15   975.00     0  02:24     0.00446        3.11       0.547
  YS02001791           JUNCTION      0.00   975.51     0  02:23           0         3.1       0.470
  YS02001793           JUNCTION      0.00   976.22     0  02:23           0        3.08       0.527
  YS02001882           JUNCTION      0.00    36.37     0  02:19           0      0.0125       3.351
  YS02001884           JUNCTION      0.00    52.74     0  02:18           0      0.0486       4.763
  YS02001887           JUNCTION    506.51   506.54     0  02:25       0.827       0.861       0.479
  YS02001890           JUNCTION      0.00   506.45     0  02:25           0        0.82       0.599
  YS02001895           JUNCTION      0.00   501.56     0  02:25           0       0.815       0.165
  YS02001898           JUNCTION      0.00   501.38     0  02:25           0       0.813       0.002
  YS02001901           JUNCTION      0.00   502.04     0  02:25           0       0.816       0.413
  YS02001904           JUNCTION      0.00   501.79     0  02:25           0        0.82       0.331
  YS02001907           JUNCTION      0.00  1381.67     0  02:26           0        2.48       0.728
  YS02001910           JUNCTION      0.00   906.77     0  02:26           0        1.67       0.437
  YS02001915           JUNCTION    553.13   907.22     0  02:26        1.01        1.71       0.094
  YS02001918           JUNCTION      0.00   456.31     0  02:22           0       0.717       0.026
  YS02001920           JUNCTION      2.87   454.22     0  02:22      0.0827       0.701       0.132
  YS02001923           JUNCTION      0.04   423.12     0  02:22     0.00109       0.603      -0.092
  YS02001926           JUNCTION      0.05   509.99     0  02:21      0.0015       0.582      -0.061
  YS02001929           JUNCTION    289.16   289.16     0  02:26        0.57       0.571      -0.096
  YS02006553           JUNCTION      0.00   740.30     0  02:36           0        2.02       0.584
  YS02006556           JUNCTION      0.00   720.85     0  02:36           0        2.03       0.415
  YS02006558           JUNCTION    662.74   974.97     0  02:23        1.14        3.15       0.115
  YS02006561           JUNCTION      0.00   973.69     0  02:23           0        3.12      -0.005
  YS02163301           JUNCTION      0.00   928.19     0  02:19           0        2.81       0.864
  YS02163601           JUNCTION      0.11  1326.55     0  02:19     0.00317        3.92       0.778
  YS02164001           JUNCTION      0.00  1325.57     0  02:19           0        3.89       0.525
  CC-1                 OUTFALL       0.00   683.00     0  00:00           0       0.208       0.000
  CC-2                 OUTFALL       0.00   683.00     0  00:00           0       0.208       0.000
  JK-1                 OUTFALL       0.00  1000.00     0  00:00           0      0.0791       0.000
  JK-2                 OUTFALL       0.00  1000.00     0  00:00           0      0.0791       0.000
  WSC                  OUTFALL       0.00   818.19     0  02:53           0        14.7       0.000
  CC-storage           STORAGE       0.00  3021.54     0  02:24           0          10       0.454
  JK-storage           STORAGE       0.00   975.52     0  02:23           0        3.22       0.512
  XR-storage           STORAGE     200.00   200.00     0  00:00        5.76        6.36     -41.886
  
  
  **********************
  Node Surcharge Summary
  **********************
  
  Surcharging occurs when water rises above the top of the highest conduit.
  ---------------------------------------------------------------------
                                               Max. Height   Min. Depth
                                   Hours       Above Crown    Below Rim
  Node                 Type      Surcharged         Meters       Meters
  ---------------------------------------------------------------------
  WS02006109           JUNCTION        1.85          0.015        1.805
  WS02006228           JUNCTION        1.84          0.013        2.187
  WS02006229           JUNCTION        1.86          0.032        2.418
  WS02006232           JUNCTION        1.92          0.051        1.429
  WS02006235           JUNCTION        1.86          0.054        1.236
  WS02006238           JUNCTION        1.89          0.087        1.343
  WS02006239           JUNCTION        1.86          0.066        1.224
  WS02006240           JUNCTION        1.87          0.079        1.311
  WS02006242           JUNCTION        1.95          0.176        0.644
  WS02006243           JUNCTION        1.88          0.135        0.635
  WS02006245           JUNCTION        1.88          0.147        0.703
  WS02006247           JUNCTION        1.90          0.182        0.578
  WS02006248           JUNCTION        1.88          0.137        0.243
  WS02006249           JUNCTION        1.90          0.377        0.013
  WS02006252           JUNCTION        2.18          1.100        0.000
  WS02006256           JUNCTION        3.09          2.050        0.000
  YS02001580           JUNCTION        0.41          0.450        0.000
  YS02001583           JUNCTION        0.42          0.362        0.138
  YS02001586           JUNCTION        0.58          0.510        0.000
  YS02001590           JUNCTION        0.68          0.750        0.000
  YS02001593           JUNCTION        0.69          0.707        0.133
  YS02001596           JUNCTION        0.87          0.989        0.081
  YS02001600           JUNCTION        1.25          1.190        0.000
  YS02001601           JUNCTION        6.16          1.440        0.000
  YS02001602           JUNCTION        6.08          1.270        0.000
  YS02001605           JUNCTION        6.04          1.180        0.000
  YS02001607           JUNCTION        0.90          0.680        0.000
  YS02001610           JUNCTION        1.05          0.680        0.000
  YS02001613           JUNCTION        0.91          0.681        0.019
  YS02001616           JUNCTION        0.81          0.610        0.000
  YS02001619           JUNCTION        0.80          0.610        0.000
  YS02001622           JUNCTION        0.81          0.620        0.000
  YS02001625           JUNCTION        5.80          0.780        0.000
  YS02001629           JUNCTION        0.77          0.470        0.000
  YS02001633           JUNCTION        5.81          1.023        0.037
  YS02001641           JUNCTION        5.77          1.017        0.083
  YS02001644           JUNCTION        5.75          0.920        0.000
  YS02001647           JUNCTION        5.67          0.707        0.193
  YS02001649           JUNCTION        5.68          0.879        0.171
  YS02001652           JUNCTION        5.65          0.663        0.467
  YS02001655           JUNCTION        0.68          0.522        0.678
  YS02001658           JUNCTION        0.10          0.357        0.943
  YS02001748           JUNCTION        0.02          0.256        0.934
  YS02001751           JUNCTION        0.22          0.422        0.778
  YS02001754           JUNCTION        5.64          0.570        0.580
  YS02001757           JUNCTION        5.68          0.911        0.299
  YS02001759           JUNCTION        5.66          0.869        0.341
  YS02001762           JUNCTION        5.66          0.859        0.291
  YS02001765           JUNCTION        5.66          0.829        0.271
  YS02001767           JUNCTION        5.65          0.819        0.211
  YS02001770           JUNCTION        5.65          0.834        0.086
  YS02001774           JUNCTION        5.66          0.945        0.105
  YS02001779           JUNCTION        5.64          0.680        0.000
  YS02001783           JUNCTION        0.62          0.709        0.891
  YS02001784           JUNCTION        0.63          0.648        0.842
  YS02001786           JUNCTION        0.62          0.605        0.825
  YS02001788           JUNCTION        0.62          0.431        1.049
  YS02001790           JUNCTION        5.95          0.524        0.633
  YS02001791           JUNCTION        5.96          0.547        1.373
  YS02001793           JUNCTION        6.00          0.868        1.732
  YS02001882           JUNCTION        0.36          0.830        0.000
  YS02001884           JUNCTION        0.37          0.870        0.000
  YS02001887           JUNCTION        0.40          0.778        0.172
  YS02001890           JUNCTION        0.41          0.760        0.000
  YS02001895           JUNCTION        0.34          0.750        0.000
  YS02001898           JUNCTION        0.34          0.620        0.120
  YS02001901           JUNCTION        0.39          0.692        0.178
  YS02001904           JUNCTION        0.38          0.648        0.202
  YS02001907           JUNCTION        0.62          0.950        0.000
  YS02001910           JUNCTION        0.44          0.974        0.126
  YS02001915           JUNCTION        0.35          0.924        0.076
  YS02001918           JUNCTION        0.27          0.810        0.000
  YS02001920           JUNCTION        0.28          1.042        0.098
  YS02001923           JUNCTION        0.01          0.712        0.108
  YS02001926           JUNCTION        0.01          0.817        0.083
  YS02001929           JUNCTION        0.01          0.757        0.023
  YS02006553           JUNCTION        0.64          0.973        0.217
  YS02006556           JUNCTION        0.53          0.909        0.441
  YS02006558           JUNCTION        0.52          0.890        0.510
  YS02006561           JUNCTION        0.31          0.321        0.829
  YS02163301           JUNCTION        5.81          0.921        0.109
  YS02163601           JUNCTION        5.83          1.080        0.000
  YS02164001           JUNCTION        5.78          1.025        0.075
  
  
  *********************
  Node Flooding Summary
  *********************
  
  Flooding refers to all water that overflows a node, whether it ponds or not.
  --------------------------------------------------------------------------
                                                             Total   Maximum
                                 Maximum   Time of Max       Flood    Ponded
                        Hours       Rate    Occurrence      Volume     Depth
  Node                 Flooded       LPS   days hr:min    10^6 ltr    Meters
  --------------------------------------------------------------------------
  WS02006252              0.01    245.63      0  00:00       0.000     0.000
  WS02006256              0.02    293.19      0  00:00       0.005     0.000
  YS02001580              0.01     29.21      0  02:16       0.000     0.000
  YS02001586              0.29    186.27      0  02:26       0.101     0.000
  YS02001590              0.01      8.33      0  02:16       0.000     0.000
  YS02001600              0.01      3.68      0  02:16       0.000     0.000
  YS02001601              0.51    750.81      0  02:25       0.693     0.000
  YS02001602              0.44     61.95      0  02:28       0.084     0.000
  YS02001605              0.01      1.07      0  02:36       0.000     0.000
  YS02001607              0.01      0.98      0  02:36       0.000     0.000
  YS02001610              0.35    359.23      0  02:26       0.231     0.000
  YS02001616              0.01      8.13      0  02:36       0.000     0.000
  YS02001619              0.01      3.42      0  02:20       0.000     0.000
  YS02001622              0.01      0.64      0  02:42       0.000     0.000
  YS02001625              0.35    973.59      0  02:27       0.524     0.000
  YS02001629              0.05     48.31      0  02:24       0.004     0.000
  YS02001644              0.06    184.84      0  02:25       0.023     0.000
  YS02001779              0.01    149.24      0  02:20       0.001     0.000
  YS02001882              0.01      1.35      0  02:36       0.000     0.000
  YS02001884              0.01      0.73      0  02:36       0.000     0.000
  YS02001890              0.04     30.51      0  02:21       0.001     0.000
  YS02001895              0.01      0.80      0  02:36       0.000     0.000
  YS02001907              0.21   1053.51      0  02:26       0.451     0.000
  YS02001918              0.01     68.35      0  02:21       0.000     0.000
  YS02163601              0.01      0.24      0  02:42       0.000     0.000
  CC-storage              0.11    300.86      0  03:01       0.063     0.000
  JK-storage              5.94    975.04      0  02:23       2.727     0.000
  
  
  **********************
  Storage Volume Summary
  **********************
  
  ------------------------------------------------------------------------------------------------
                         Average    Avg   Evap  Exfil     Maximum    Max    Time of Max    Maximum
                          Volume   Pcnt   Pcnt   Pcnt      Volume   Pcnt     Occurrence    Outflow
  Storage Unit           1000 m³   Full   Loss   Loss     1000 m³   Full    days hr:min        LPS
  ------------------------------------------------------------------------------------------------
  CC-storage               4.572   71.3    0.0    0.0       6.410  100.0       0  03:00    1783.53
  JK-storage               0.221   75.9    0.0    0.0       0.291  100.0       0  02:03    2300.00
  XR-storage               0.037    2.5    0.0    0.0       0.600   41.7       0  00:00     380.00
  
  
  ***********************
  Outfall Loading Summary
  ***********************
  
  -----------------------------------------------------------
                         Flow       Avg       Max       Total
                         Freq      Flow      Flow      Volume
  Outfall Node           Pcnt       LPS       LPS    10^6 ltr
  -----------------------------------------------------------
  CC-1                   1.35    683.00    683.00       0.208
  CC-2                   1.35    683.00    683.00       0.208
  JK-1                   1.25    347.46   1000.00       0.079
  JK-2                   1.25    347.46   1000.00       0.079
  WSC                   99.92    573.21    818.19      14.735
  -----------------------------------------------------------
  System                21.02   2634.14   3366.35      15.310
  
  
  ********************
  Link Flow Summary
  ********************
  
  -----------------------------------------------------------------------------
                                 Maximum  Time of Max   Maximum    Max/    Max/
                                  |Flow|   Occurrence   |Veloc|    Full    Full
  Link                 Type          LPS  days hr:min     m/sec    Flow   Depth
  -----------------------------------------------------------------------------
  1                    CONDUIT    818.19     0  02:53      3.15    0.28    0.37
  WS02001211WS02001212 CONDUIT    390.85     0  03:46      0.78    0.30    0.64
  WS02001212WS02001213 CONDUIT    392.60     0  03:45      1.32    0.61    0.45
  WS02001213WS02003059 CONDUIT    395.63     0  03:45      0.85    0.65    0.75
  WS02003059WS02003060 CONDUIT    399.94     0  03:45      0.95    0.26    0.63
  WS02003060WS02003069 CONDUIT    816.10     0  02:48      1.80    0.32    0.42
  WS02003066WSF200     CONDUIT    411.95     0  02:47      2.69    0.07    0.19
  WS02003067WS02003066 CONDUIT    411.96     0  02:47      1.04    0.13    0.38
  WS02003069WS02003072 CONDUIT    816.39     0  02:52      1.55    0.39    0.47
  WS02003072WS02003073 CONDUIT    816.39     0  02:53      1.64    1.76    0.45
  WS02004138WS02004139 CONDUIT    395.20     0  00:00      3.65    0.08    0.43
  WS02004139WS02001211 CONDUIT    381.77     0  03:43      0.91    0.48    0.59
  WS02004401WS02004402 CONDUIT    412.29     0  02:10      0.99    0.49    0.77
  WS02004402WS02004403 CONDUIT    412.26     0  02:10      0.99    0.59    0.79
  WS02004403WS02004404 CONDUIT    412.23     0  02:10      0.93    0.30    0.84
  WS02004404WS02004405 CONDUIT    412.36     0  02:11      1.10    4.04    0.88
  WS02004405WS02004406 CONDUIT    412.36     0  02:11      1.03    0.81    0.88
  WS02004406WS02004407 CONDUIT    412.21     0  02:11      0.89    0.18    0.57
  WS02004407WS02004409 CONDUIT    412.14     0  02:11      1.42    0.15    0.42
  WS02004409WS02004410 CONDUIT    412.10     0  02:12      0.92    0.53    0.58
  WS02004410WS02004411 CONDUIT    412.05     0  02:12      0.85    0.56    0.60
  WS02004411WS02004412 CONDUIT    412.03     0  02:12      0.81    0.59    0.61
  WS02004412WS02004413 CONDUIT    412.05     0  02:46      0.70    0.28    0.70
  WS02004413WS02003067 CONDUIT    411.95     0  02:47      0.96    0.18    0.54
  WS02006109WS02006110 CONDUIT    411.78     0  02:38      0.84    0.79    0.94
  WS02006110WS02006113 CONDUIT    412.07     0  03:10      1.03    0.37    0.75
  WS02006111WS02006112 CONDUIT    414.04     0  03:09      1.83    0.20    0.65
  WS02006112WS02006115 CONDUIT    412.68     0  03:09      0.71    0.24    0.78
  WS02006113WS02006111 CONDUIT    423.78     0  02:09      2.25    0.51    0.40
  WS02006115WS02006116 CONDUIT    412.45     0  02:10      0.98    0.53    0.66
  WS02006116WS02004401 CONDUIT    412.38     0  02:10      1.00    0.57    0.74
  WS02006228WS02006109 CONDUIT    410.55     0  02:38      1.06    1.79    1.00
  WS02006229WS02006228 CONDUIT    410.55     0  02:38      1.13    1.36    1.00
  WS02006230WS02006229 CONDUIT    410.55     0  02:38      1.22    9.14    1.00
  WS02006231WS02006230 CONDUIT    400.29     0  02:51      1.37    6.07    0.77
  WS02006232WS02006231 CONDUIT    400.38     0  02:36      1.08    0.84    0.92
  WS02006234WS02006232 CONDUIT    400.38     0  02:37      1.40    0.81    1.00
  WS02006235WS02006234 CONDUIT    401.40     0  02:36      1.29    4.23    0.99
  WS02006238WS02006235 CONDUIT    401.92     0  02:36      1.50    0.90    1.00
  WS02006239WS02006238 CONDUIT    401.29     0  02:15      1.20    1.28    1.00
  WS02006240WS02006239 CONDUIT    401.07     0  02:36      1.31    1.26    1.00
  WS02006242WS02006240 CONDUIT    401.61     0  02:36      1.17    1.60    1.00
  WS02006243WS02006242 CONDUIT    401.76     0  02:23      1.43    0.86    1.00
  WS02006245WS02006243 CONDUIT    402.34     0  02:36      1.45    1.19    1.00
  WS02006247WS02006245 CONDUIT    403.49     0  02:56      1.43    3.20    1.00
  WS02006248WS02006247 CONDUIT    401.16     0  02:14      1.44    0.87    1.00
  WS02006249WS02006248 CONDUIT    405.08     0  02:36      1.39    2.22    1.00
  WS02006251WS02006249 CONDUIT    458.97     0  00:00      1.99    1.32    1.00
  WS02006252WS02006251 CONDUIT    401.11     0  02:23     24.55    1.47    1.00
  WS02006256WS02006235 CONDUIT    288.91     0  00:00      4.23    3.06    1.00
  WSF200WS02003060     CONDUIT    411.97     0  02:47      1.43    0.09    0.30
  YS02001580YS02001583 CONDUIT     69.56     0  02:15      0.51    0.27    1.00
  YS02001583YS02001586 CONDUIT    121.40     0  02:15      0.51    0.18    1.00
  YS02001586YS02001590 CONDUIT    320.20     0  02:36      1.26    0.56    1.00
  YS02001590YS02001593 CONDUIT    320.07     0  02:36      1.13    2.01    1.00
  YS02001593YS02001596 CONDUIT    318.07     0  02:31      1.63    0.50    1.00
  YS02001596YS02001600 CONDUIT    318.36     0  02:36      1.13    0.62    1.00
  YS02001600YS02001601 CONDUIT    318.73     0  02:36      1.13    0.55    1.00
  YS02001601YS02001602 CONDUIT    489.77     0  02:15      1.73    1.77    1.00
  YS02001602YS02001605 CONDUIT    490.02     0  02:15      1.73   10.37    1.00
  YS02001605YS02001607 CONDUIT    489.93     0  02:15      1.73    2.69    1.00
  YS02001607YS02001610 CONDUIT    491.28     0  02:14      0.63    0.47    1.00
  YS02001610YS02001613 CONDUIT    491.25     0  02:14      0.63    0.57    1.00
  YS02001613YS02001616 CONDUIT    489.35     0  02:14      0.63    0.42    1.00
  YS02001616YS02001619 CONDUIT    486.98     0  02:15      0.65    0.85    1.00
  YS02001619YS02001622 CONDUIT    927.82     0  02:19      1.18    1.37    1.00
  YS02001622YS02001625 CONDUIT    927.79     0  02:19      1.18    0.50    1.00
  YS02001625YS02001629 CONDUIT    928.21     0  02:19      1.18    0.44    1.00
  YS02001629YS02163301 CONDUIT    928.19     0  02:19      1.18    1.14    1.00
  YS02001633YS02163601 CONDUIT   1326.44     0  02:19      1.69    1.39    1.00
  YS02001641YS02001644 CONDUIT   1324.90     0  02:19      1.69    4.28    1.00
  YS02001644YS02001647 CONDUIT   1674.51     0  02:20      2.18    0.98    1.00
  YS02001647YS02001649 CONDUIT   1696.04     0  02:20      2.30    0.90    1.00
  YS02001649YS02001757 CONDUIT   1858.08     0  02:20      2.45    1.13    1.00
  YS02001652YS02001649 CONDUIT    565.92     0  02:25      0.79    0.28    1.00
  YS02001655YS02001652 CONDUIT    565.52     0  02:25      1.23    0.27    1.00
  YS02001658YS02001655 CONDUIT    566.78     0  02:25      1.83    0.24    1.00
  YS02001661YS02001658 CONDUIT    565.10     0  02:25      2.21    0.22    0.92
  YS02001664YS02001661 CONDUIT    588.06     0  02:24      2.15    0.18    0.60
  YS02001745YS02001748 CONDUIT    435.85     0  02:24      2.01    0.17    0.84
  YS02001748YS02001751 CONDUIT    348.48     0  02:24      1.59    0.18    1.00
  YS02001751YS02001754 CONDUIT    349.08     0  02:24      1.34    0.17    1.00
  YS02001754YS02001757 CONDUIT    349.26     0  02:25      0.49    0.14    1.00
  YS02001757CaochengTiaoxuchi CONDUIT   3021.54     0  02:24      3.85    1.31    1.00
  YS02001759YS02001757 CONDUIT   1149.29     0  02:25      1.46    0.82    1.00
  YS02001762YS02001759 CONDUIT    669.20     0  02:25      0.85    0.77    1.00
  YS02001765YS02001762 CONDUIT    669.37     0  02:25      0.85    0.63    1.00
  YS02001767YS02001765 CONDUIT    668.56     0  02:25      0.85    0.84    1.00
  YS02001770YS02001767 CONDUIT    668.11     0  02:25      0.85    2.65    1.00
  YS02001774YS02001770 CONDUIT    241.55     0  02:20      0.31    0.15    1.00
  YS02001779YS02001774 CONDUIT    244.00     0  02:20      0.31    0.12    1.00
  YS02001783YS02001784 CONDUIT    973.62     0  02:23      1.94    1.34    1.00
  YS02001784YS02001785 CONDUIT    974.38     0  02:23      1.94    2.27    1.00
  YS02001786YS02001788 CONDUIT    974.69     0  02:24      1.94    1.88    1.00
  YS02001788YS02001790 CONDUIT    974.85     0  02:24      1.94    0.72    1.00
  YS02001790YS02001791 CONDUIT    975.51     0  02:23      2.23    1.06    1.00
  YS02001791YS02001793 CONDUIT    976.22     0  02:23      4.26    0.42    1.00
  YS02001793JiankangQianchi CONDUIT    975.52     0  02:23      1.54    0.08    1.00
  YS02001882YS02001884 CONDUIT     36.37     0  02:19      0.12    0.04    1.00
  YS02001884YS02001887 CONDUIT     52.74     0  02:18      0.09    0.07    1.00
  YS02001887YS02001890 CONDUIT    506.45     0  02:25      0.64    0.87    1.00
  YS02001890YS02001895 CONDUIT    501.56     0  02:25      0.64    0.23    1.00
  YS02001895YS02001898 CONDUIT    501.38     0  02:25      0.64    0.87    1.00
  YS02001898YS02001901 CONDUIT    502.04     0  02:25      0.64    0.32    1.00
  YS02001901YS02001904 CONDUIT    501.79     0  02:25      0.64    0.78    1.00
  YS02001904YS02001907 CONDUIT    502.24     0  02:25      0.64    0.18    1.00
  YS02001907YS02006553 CONDUIT    740.30     0  02:36      0.82    0.87    1.00
  YS02001910YS02001907 CONDUIT    907.34     0  02:26      1.16    0.51    1.00
  YS02001915YS02001910 CONDUIT    906.77     0  02:26      1.15    0.45    1.00
  YS02001918YS02001915 CONDUIT    458.50     0  02:22      0.58    0.25    1.00
  YS02001920YS02001918 CONDUIT    456.31     0  02:22      0.63    0.44    1.00
  YS02001923YS02001920 CONDUIT    451.35     0  02:22      0.70    0.20    1.00
  YS02001926YS02001923 CONDUIT    423.08     0  02:22      0.93    0.60    1.00
  YS02001929YS02001926 CONDUIT    417.42     0  02:22      1.07    0.20    1.00
  YS02006553YS02006556 CONDUIT    720.85     0  02:36      0.92    0.62    1.00
  YS02006556YS02006558 CONDUIT    698.72     0  02:36      0.89    0.55    1.00
  YS02006558YS02006561 CONDUIT    973.69     0  02:23      3.44    2.15    1.00
  YS02006561YS02001783 CONDUIT    974.16     0  02:23      1.94    0.50    1.00
  YS02163301YS02001633 CONDUIT    927.83     0  02:19      1.18    0.87    1.00
  YS02163601YS02164001 CONDUIT   1325.57     0  02:19      1.69    1.17    1.00
  YS02164001YS02001641 CONDUIT   1324.12     0  02:19      1.69    1.81    1.00
  CC-R1                PUMP       683.00     0  00:00              1.00
  CC-R2                PUMP       683.00     0  00:00              1.00
  CC-S1                PUMP       200.00     0  00:00              1.00
  CC-S2                PUMP       200.00     0  00:00              1.00
  JK-R1                PUMP      1000.00     0  00:00              1.00
  JK-R2                PUMP      1000.00     0  00:00              1.00
  JK-S                 PUMP       300.00     0  00:00              1.00
  XR-1                 PUMP        95.00     0  00:00              1.00
  XR-2                 PUMP        95.00     0  00:00              1.00
  XR-3                 PUMP        95.00     0  00:00              1.00
  XR-4                 PUMP        95.00     0  00:00              1.00
  
  
  ***************************
  Flow Classification Summary
  ***************************
  
  -------------------------------------------------------------------------------------
                      Adjusted    ---------- Fraction of Time in Flow Class ---------- 
                       /Actual         Up    Down  Sub   Sup   Up    Down  Norm  Inlet 
  Conduit               Length    Dry  Dry   Dry   Crit  Crit  Crit  Crit  Ltd   Ctrl  
  -------------------------------------------------------------------------------------
  1                       1.00   0.00  0.00  0.00  0.00  1.00  0.00  0.00  0.18  0.00
  WS02001211WS02001212    1.00   0.00  0.00  0.00  1.00  0.00  0.00  0.00  0.00  0.00
  WS02001212WS02001213    1.00   0.00  0.00  0.00  0.37  0.00  0.63  0.00  0.00  0.00
  WS02001213WS02003059    1.00   0.00  0.00  0.00  0.99  0.00  0.00  0.00  0.00  0.00
  WS02003059WS02003060    1.00   0.00  0.00  0.00  1.00  0.00  0.00  0.00  0.00  0.00
  WS02003060WS02003069    1.00   0.00  0.00  0.00  0.99  0.01  0.00  0.00  0.00  0.00
  WS02003066WSF200        1.00   0.02  0.10  0.00  0.00  0.88  0.00  0.00  0.87  0.00
  WS02003067WS02003066    1.00   0.10  0.02  0.00  0.89  0.00  0.00  0.00  0.00  0.00
  WS02003069WS02003072    1.00   0.00  0.00  0.00  0.99  0.01  0.00  0.00  0.00  0.00
  WS02003072WS02003073    1.00   0.00  0.00  0.00  0.00  0.00  0.00  1.00  0.00  0.00
  WS02004138WS02004139    1.00   0.00  0.00  0.00  0.99  0.01  0.00  0.00  1.00  0.00
  WS02004139WS02001211    1.00   0.00  0.00  0.00  1.00  0.00  0.00  0.00  0.00  0.00
  WS02004401WS02004402    1.00   0.02  0.00  0.00  0.98  0.00  0.00  0.00  0.00  0.00
  WS02004402WS02004403    1.00   0.02  0.00  0.00  0.98  0.00  0.00  0.00  0.00  0.00
  WS02004403WS02004404    1.00   0.00  0.03  0.00  0.97  0.00  0.00  0.00  0.00  0.00
  WS02004404WS02004405    1.00   0.00  0.00  0.00  1.00  0.00  0.00  0.00  0.00  0.00
  WS02004405WS02004406    1.00   0.00  0.00  0.00  1.00  0.00  0.00  0.00  0.00  0.00
  WS02004406WS02004407    1.00   0.00  0.05  0.00  0.95  0.00  0.00  0.00  0.00  0.00
  WS02004407WS02004409    1.00   0.05  0.00  0.00  0.94  0.01  0.00  0.00  0.94  0.00
  WS02004409WS02004410    1.00   0.05  0.00  0.00  0.95  0.00  0.00  0.00  0.02  0.00
  WS02004410WS02004411    1.00   0.05  0.00  0.00  0.95  0.00  0.00  0.00  0.00  0.00
  WS02004411WS02004412    1.00   0.05  0.00  0.00  0.95  0.00  0.00  0.00  0.00  0.00
  WS02004412WS02004413    1.00   0.05  0.00  0.00  0.94  0.00  0.00  0.00  0.01  0.00
  WS02004413WS02003067    1.00   0.06  0.04  0.00  0.00  0.00  0.90  0.00  0.00  0.00
  WS02006109WS02006110    1.00   0.00  0.01  0.00  0.98  0.00  0.01  0.00  0.00  0.00
  WS02006110WS02006113    1.00   0.01  0.01  0.00  0.98  0.00  0.00  0.00  0.00  0.00
  WS02006111WS02006112    1.00   0.02  0.00  0.00  0.98  0.00  0.00  0.00  0.98  0.00
  WS02006112WS02006115    1.00   0.02  0.00  0.00  0.97  0.00  0.00  0.00  0.00  0.00
  WS02006113WS02006111    1.00   0.02  0.00  0.00  0.00  0.98  0.00  0.00  0.11  0.00
  WS02006115WS02006116    1.00   0.02  0.00  0.00  0.97  0.00  0.00  0.01  0.00  0.00
  WS02006116WS02004401    1.00   0.02  0.00  0.00  0.98  0.00  0.00  0.00  0.00  0.00
  WS02006228WS02006109    1.00   0.00  0.00  0.00  1.00  0.00  0.00  0.00  0.00  0.00
  WS02006229WS02006228    1.00   0.00  0.00  0.00  0.99  0.00  0.00  0.01  0.00  0.00
  WS02006230WS02006229    1.00   0.00  0.00  0.00  0.99  0.00  0.00  0.01  0.00  0.00
  WS02006231WS02006230    1.00   0.00  0.00  0.00  0.25  0.00  0.75  0.00  0.00  0.00
  WS02006232WS02006231    1.00   0.00  0.00  0.00  0.99  0.00  0.01  0.00  0.00  0.00
  WS02006234WS02006232    1.00   0.00  0.00  0.00  1.00  0.00  0.00  0.00  0.52  0.00
  WS02006235WS02006234    1.00   0.00  0.00  0.00  0.44  0.00  0.56  0.00  0.00  0.00
  WS02006238WS02006235    1.00   0.00  0.00  0.00  1.00  0.00  0.00  0.00  0.00  0.00
  WS02006239WS02006238    1.00   0.00  0.00  0.00  1.00  0.00  0.00  0.00  0.61  0.00
  WS02006240WS02006239    1.00   0.00  0.00  0.00  0.35  0.00  0.00  0.65  0.01  0.00
  WS02006242WS02006240    1.00   0.00  0.00  0.00  0.99  0.00  0.01  0.00  0.00  0.00
  WS02006243WS02006242    1.00   0.00  0.00  0.00  0.99  0.00  0.00  0.01  0.70  0.00
  WS02006245WS02006243    1.00   0.00  0.00  0.00  0.40  0.00  0.00  0.59  0.00  0.00
  WS02006247WS02006245    1.00   0.00  0.00  0.00  0.99  0.00  0.00  0.01  0.00  0.00
  WS02006248WS02006247    1.00   0.00  0.00  0.00  0.99  0.00  0.00  0.01  0.12  0.00
  WS02006249WS02006248    1.00   0.00  0.00  0.00  0.30  0.00  0.70  0.00  0.00  0.00
  WS02006251WS02006249    1.00   0.00  0.00  0.00  1.00  0.00  0.00  0.00  0.71  0.00
  WS02006252WS02006251    1.00   0.00  0.73  0.00  0.00  0.00  0.27  0.00  0.56  0.00
  WS02006256WS02006235    1.00   0.00  0.00  0.00  1.00  0.00  0.00  0.00  0.00  0.00
  WSF200WS02003060        1.00   0.00  0.02  0.00  0.98  0.00  0.00  0.00  0.65  0.00
  YS02001580YS02001583    1.00   0.28  0.55  0.00  0.18  0.00  0.00  0.00  0.64  0.00
  YS02001583YS02001586    1.00   0.48  0.30  0.00  0.22  0.00  0.00  0.00  0.64  0.00
  YS02001586YS02001590    1.00   0.13  0.00  0.00  0.41  0.04  0.00  0.43  0.35  0.00
  YS02001590YS02001593    1.00   0.13  0.01  0.00  0.11  0.00  0.76  0.00  0.00  0.00
  YS02001593YS02001596    1.00   0.13  0.00  0.00  0.74  0.00  0.00  0.12  0.63  0.00
  YS02001596YS02001600    1.00   0.14  0.00  0.00  0.79  0.01  0.00  0.07  0.03  0.00
  YS02001600YS02001601    1.00   0.13  0.01  0.00  0.86  0.00  0.00  0.00  0.04  0.00
  YS02001601YS02001602    1.00   0.13  0.01  0.00  0.87  0.00  0.00  0.00  0.00  0.00
  YS02001602YS02001605    1.00   0.13  0.00  0.00  0.86  0.00  0.00  0.00  0.00  0.00
  YS02001605YS02001607    1.00   0.14  0.00  0.00  0.86  0.00  0.00  0.00  0.00  0.00
  YS02001607YS02001610    1.00   0.13  0.01  0.00  0.86  0.00  0.00  0.00  0.01  0.00
  YS02001610YS02001613    1.00   0.13  0.00  0.00  0.87  0.00  0.00  0.00  0.00  0.00
  YS02001613YS02001616    1.00   0.13  0.00  0.00  0.87  0.00  0.00  0.00  0.00  0.00
  YS02001616YS02001619    1.00   0.13  0.00  0.00  0.87  0.00  0.00  0.00  0.00  0.00
  YS02001619YS02001622    1.00   0.13  0.00  0.00  0.87  0.00  0.00  0.00  0.00  0.00
  YS02001622YS02001625    1.00   0.13  0.00  0.00  0.87  0.00  0.00  0.00  0.04  0.00
  YS02001625YS02001629    1.00   0.13  0.05  0.00  0.75  0.00  0.07  0.00  0.00  0.00
  YS02001629YS02163301    1.00   0.15  0.01  0.00  0.84  0.00  0.00  0.00  0.00  0.00
  YS02001633YS02163601    1.00   0.00  0.01  0.00  0.99  0.00  0.00  0.00  0.15  0.00
  YS02001641YS02001644    1.00   0.00  0.01  0.00  0.99  0.00  0.00  0.00  0.00  0.00
  YS02001644YS02001647    1.00   0.00  0.17  0.00  0.83  0.00  0.00  0.00  0.00  0.00
  YS02001647YS02001649    1.00   0.00  0.17  0.00  0.77  0.06  0.00  0.00  0.02  0.00
  YS02001649YS02001757    1.00   0.00  0.00  0.00  0.93  0.07  0.00  0.00  0.18  0.00
  YS02001652YS02001649    1.00   0.00  0.00  0.00  0.97  0.03  0.00  0.00  0.18  0.00
  YS02001655YS02001652    1.00   0.00  0.00  0.00  0.75  0.01  0.00  0.24  0.03  0.00
  YS02001658YS02001655    1.00   0.00  0.14  0.00  0.72  0.14  0.00  0.00  0.09  0.00
  YS02001661YS02001658    1.00   0.14  0.00  0.00  0.71  0.15  0.00  0.00  0.06  0.00
  YS02001664YS02001661    1.00   0.13  0.00  0.00  0.80  0.07  0.00  0.00  0.87  0.00
  YS02001745YS02001748    1.00   0.00  0.00  0.00  0.71  0.00  0.00  0.29  0.00  0.00
  YS02001748YS02001751    1.00   0.00  0.00  0.00  0.85  0.15  0.00  0.00  0.13  0.00
  YS02001751YS02001754    1.00   0.00  0.00  0.00  0.73  0.01  0.00  0.27  0.01  0.00
  YS02001754YS02001757    1.00   0.00  0.00  0.00  1.00  0.00  0.00  0.00  0.26  0.00
  YS02001757CaochengTiaoxuchi    1.00   0.00  0.00  0.00  1.00  0.00  0.00  0.00  0.24  0.00
  YS02001759YS02001757    1.00   0.00  0.00  0.00  1.00  0.00  0.00  0.00  0.07  0.00
  YS02001762YS02001759    1.00   0.00  0.00  0.00  1.00  0.00  0.00  0.00  0.04  0.00
  YS02001765YS02001762    1.00   0.00  0.00  0.00  1.00  0.00  0.00  0.00  0.15  0.00
  YS02001767YS02001765    1.00   0.00  0.00  0.00  1.00  0.00  0.00  0.00  0.00  0.00
  YS02001770YS02001767    1.00   0.00  0.00  0.00  1.00  0.00  0.00  0.00  0.00  0.00
  YS02001774YS02001770    1.00   0.00  0.13  0.00  0.87  0.00  0.00  0.00  0.03  0.00
  YS02001779YS02001774    1.00   0.00  0.00  0.00  1.00  0.00  0.00  0.00  0.18  0.00
  YS02001783YS02001784    1.00   0.00  0.18  0.00  0.82  0.00  0.00  0.00  0.00  0.00
  YS02001784YS02001785    1.00   0.00  0.00  0.00  1.00  0.00  0.00  0.00  0.17  0.00
  YS02001786YS02001788    1.00   0.00  0.00  0.00  0.94  0.06  0.00  0.00  0.00  0.00
  YS02001788YS02001790    1.00   0.00  0.00  0.00  0.93  0.07  0.00  0.00  0.19  0.00
  YS02001790YS02001791    1.00   0.00  0.00  0.00  0.76  0.24  0.00  0.00  0.05  0.00
  YS02001791YS02001793    1.00   0.00  0.00  0.00  0.76  0.24  0.00  0.00  0.01  0.00
  YS02001793JiankangQianchi    1.00   0.00  0.00  0.00  0.93  0.06  0.00  0.00  0.22  0.00
  YS02001882YS02001884    1.00   0.15  0.01  0.00  0.84  0.00  0.00  0.00  0.00  0.00
  YS02001884YS02001887    1.00   0.06  0.05  0.00  0.89  0.00  0.00  0.00  0.00  0.00
  YS02001887YS02001890    1.00   0.00  0.00  0.00  0.97  0.00  0.03  0.00  0.00  0.00
  YS02001890YS02001895    1.00   0.00  0.16  0.00  0.84  0.00  0.00  0.00  0.00  0.00
  YS02001895YS02001898    1.00   0.16  0.00  0.00  0.82  0.00  0.02  0.00  0.00  0.00
  YS02001898YS02001901    1.00   0.17  0.00  0.00  0.83  0.00  0.00  0.00  0.01  0.00
  YS02001901YS02001904    1.00   0.17  0.00  0.00  0.83  0.00  0.00  0.00  0.00  0.00
  YS02001904YS02001907    1.00   0.00  0.16  0.00  0.84  0.00  0.00  0.00  0.00  0.00
  YS02001907YS02006553    1.00   0.00  0.02  0.00  0.98  0.00  0.00  0.00  0.00  0.00
  YS02001910YS02001907    1.00   0.00  0.00  0.00  0.97  0.00  0.00  0.03  0.12  0.00
  YS02001915YS02001910    1.00   0.00  0.00  0.00  0.97  0.03  0.00  0.00  0.16  0.00
  YS02001918YS02001915    1.00   0.00  0.01  0.00  0.98  0.02  0.00  0.00  0.77  0.00
  YS02001920YS02001918    1.00   0.00  0.01  0.00  0.99  0.00  0.00  0.00  0.00  0.00
  YS02001923YS02001920    1.00   0.00  0.00  0.00  1.00  0.00  0.00  0.00  0.94  0.00
  YS02001926YS02001923    1.00   0.00  0.07  0.00  0.04  0.00  0.88  0.00  0.00  0.00
  YS02001929YS02001926    1.00   0.00  0.13  0.00  0.87  0.00  0.00  0.00  0.84  0.00
  YS02006553YS02006556    1.00   0.01  0.00  0.00  0.99  0.00  0.00  0.00  0.03  0.00
  YS02006556YS02006558    1.00   0.00  0.00  0.00  1.00  0.00  0.00  0.00  0.00  0.00
  YS02006558YS02006561    1.00   0.18  0.00  0.00  0.06  0.76  0.00  0.00  0.19  0.00
  YS02006561YS02001783    1.00   0.18  0.00  0.00  0.74  0.08  0.00  0.00  0.73  0.00
  YS02163301YS02001633    1.00   0.00  0.15  0.00  0.85  0.00  0.00  0.00  0.00  0.00
  YS02163601YS02164001    1.00   0.00  0.08  0.00  0.92  0.00  0.00  0.00  0.00  0.00
  YS02164001YS02001641    1.00   0.01  0.07  0.00  0.92  0.00  0.00  0.00  0.05  0.00
  
  
  *************************
  Conduit Surcharge Summary
  *************************
  
  ----------------------------------------------------------------------------
                                                           Hours        Hours 
                         --------- Hours Full --------   Above Full   Capacity
  Conduit                Both Ends  Upstream  Dnstream   Normal Flow   Limited
  ----------------------------------------------------------------------------
  WS02003072WS02003073        0.01      0.01      0.01      2.39         0.01
  WS02004404WS02004405        0.01      0.01      0.01      2.24         0.01
  WS02006109WS02006110        0.01      0.01      1.90      0.01         0.01
  WS02006110WS02006113        0.01      0.01      1.88      0.01         0.01
  WS02006111WS02006112        0.01      0.01      1.96      0.01         0.01
  WS02006228WS02006109        1.85      1.91      1.85      2.07         1.85
  WS02006229WS02006228        1.84      1.86      1.84      2.01         1.84
  WS02006230WS02006229        1.96      1.98      1.96      2.51         1.96
  WS02006231WS02006230        0.01      0.01      0.01      2.37         0.01
  WS02006232WS02006231        0.01      0.01      1.92      0.01         0.01
  WS02006234WS02006232        1.81      1.81      1.92      0.01         0.01
  WS02006235WS02006234        0.01      0.01      1.86      2.28         0.01
  WS02006238WS02006235        1.87      1.87      1.92      0.01         0.01
  WS02006239WS02006238        1.89      1.91      1.89      2.04         1.89
  WS02006240WS02006239        1.86      1.88      1.86      2.06         1.86
  WS02006242WS02006240        1.87      1.87      1.97      2.11         0.01
  WS02006243WS02006242        1.89      1.89      1.95      0.01         0.01
  WS02006245WS02006243        1.88      1.89      1.88      2.11         1.88
  WS02006247WS02006245        1.88      1.91      1.88      2.17         1.88
  WS02006248WS02006247        1.89      1.89      1.90      0.01         0.01
  WS02006249WS02006248        1.88      1.88      1.90      2.17         0.01
  WS02006251WS02006249        1.90      1.90      1.90      2.16         1.89
  WS02006252WS02006251        2.18      2.18      2.18      2.18         0.01
  WS02006256WS02006235        2.32      2.33      3.08      0.02         0.01
  YS02001580YS02001583        0.41      0.41      0.46      0.01         0.01
  YS02001583YS02001586        0.42      0.42      0.58      0.01         0.01
  YS02001586YS02001590        0.59      0.59      0.68      0.01         0.01
  YS02001590YS02001593        0.69      0.69      0.71      0.66         0.01
  YS02001593YS02001596        0.70      0.70      0.87      0.01         0.01
  YS02001596YS02001600        0.95      0.95      1.25      0.01         0.01
  YS02001600YS02001601        5.85      5.85      6.16      0.01         0.01
  YS02001601YS02001602        6.08      6.08      6.18      0.91         0.01
  YS02001602YS02001605        6.03      6.03      6.08      2.16         0.09
  YS02001605YS02001607        5.99      6.03      5.99      1.21         1.05
  YS02001607YS02001610        0.90      0.90      1.05      0.01         0.01
  YS02001610YS02001613        0.91      0.91      1.05      0.01         0.01
  YS02001613YS02001616        0.81      0.81      0.91      0.01         0.01
  YS02001616YS02001619        0.80      0.80      0.81      0.01         0.01
  YS02001619YS02001622        0.80      0.80      0.81      0.57         0.48
  YS02001622YS02001625        0.81      0.81      5.80      0.01         0.01
  YS02001625YS02001629        0.77      0.77      5.80      0.01         0.01
  YS02001629YS02163301        5.80      5.80      5.81      0.09         0.10
  YS02001633YS02163601        5.81      5.81      5.83      0.14         0.19
  YS02001641YS02001644        5.75      5.77      5.75      1.27         0.86
  YS02001644YS02001647        5.67      5.67      5.75      0.01         0.01
  YS02001647YS02001649        5.67      5.67      5.68      0.01         0.01
  YS02001649YS02001757        5.68      5.68      5.68      0.11         0.06
  YS02001652YS02001649        5.65      5.65      5.68      0.01         0.01
  YS02001655YS02001652        0.68      0.68      5.65      0.01         0.01
  YS02001658YS02001655        0.10      0.10      0.68      0.01         0.01
  YS02001661YS02001658        0.01      0.01      0.10      0.01         0.01
  YS02001745YS02001748        0.01      0.01      0.02      0.01         0.01
  YS02001748YS02001751        0.07      0.07      0.22      0.01         0.01
  YS02001751YS02001754        0.22      0.22      5.64      0.01         0.01
  YS02001754YS02001757        5.64      5.64      5.68      0.01         0.01
  YS02001757CaochengTiaoxuchi        5.68      5.68      5.72      0.18         0.18
  YS02001759YS02001757        5.66      5.66      5.68      0.01         0.01
  YS02001762YS02001759        5.66      5.66      5.66      0.01         0.01
  YS02001765YS02001762        5.66      5.66      5.66      0.01         0.01
  YS02001767YS02001765        5.65      5.65      5.66      0.01         0.02
  YS02001770YS02001767        5.65      5.65      5.65      0.35         0.34
  YS02001774YS02001770        5.65      5.65      5.66      0.01         0.01
  YS02001779YS02001774        5.64      5.64      5.66      0.01         0.01
  YS02001783YS02001784        0.62      0.62      0.63      0.45         0.46
  YS02001784YS02001785        0.62      0.63      0.62      0.76         0.62
  YS02001786YS02001788        0.62      0.62      0.62      0.66         0.61
  YS02001788YS02001790        0.62      0.62      5.95      0.01         0.01
  YS02001790YS02001791        5.95      5.95      5.96      0.25         0.25
  YS02001791YS02001793        5.96      5.96      6.01      0.01         0.01
  YS02001793JiankangQianchi        6.00      6.00      6.30      0.01         0.01
  YS02001882YS02001884        0.36      0.36      0.37      0.01         0.01
  YS02001884YS02001887        0.39      0.39      0.40      0.01         0.01
  YS02001887YS02001890        0.41      0.41      0.42      0.01         0.01
  YS02001890YS02001895        0.34      0.34      0.44      0.01         0.01
  YS02001895YS02001898        0.34      0.34      0.34      0.01         0.01
  YS02001898YS02001901        0.35      0.35      0.39      0.01         0.01
  YS02001901YS02001904        0.38      0.38      0.39      0.01         0.01
  YS02001904YS02001907        0.38      0.38      0.64      0.01         0.01
  YS02001907YS02006553        0.78      0.78      0.84      0.01         0.01
  YS02001910YS02001907        0.44      0.44      0.62      0.01         0.01
  YS02001915YS02001910        0.35      0.35      0.44      0.01         0.01
  YS02001918YS02001915        0.27      0.27      0.35      0.01         0.01
  YS02001920YS02001918        0.27      0.27      0.28      0.01         0.01
  YS02001923YS02001920        0.21      0.21      0.28      0.01         0.01
  YS02001926YS02001923        0.01      0.01      0.01      0.01         0.01
  YS02001929YS02001926        0.01      0.01      0.01      0.01         0.01
  YS02006553YS02006556        0.53      0.53      0.64      0.01         0.01
  YS02006556YS02006558        0.58      0.58      0.66      0.01         0.01
  YS02006558YS02006561        0.39      0.52      0.39      0.72         0.39
  YS02006561YS02001783        0.30      0.30      0.62      0.01         0.01
  YS02163301YS02001633        5.81      5.81      5.82      0.01         0.01
  YS02163601YS02164001        5.78      5.78      5.83      0.10         0.01
  YS02164001YS02001641        5.77      5.78      5.77      0.56         0.48
  
  
  ***************
  Pumping Summary
  ***************
  
  ---------------------------------------------------------------------------------------------------------
                                                  Min       Avg       Max     Total     Power    % Time Off
                        Percent   Number of      Flow      Flow      Flow    Volume     Usage    Pump Curve
  Pump                 Utilized   Start-Ups       LPS       LPS       LPS  10^6 ltr     Kw-hr    Low   High
  ---------------------------------------------------------------------------------------------------------
  CC-R1                    1.06           1      0.00    683.00    683.00     0.208      3.51    0.0  100.0
  CC-R2                    1.06           1      0.00    683.00    683.00     0.208      3.51    0.0  100.0
  CC-S1                   27.20           2      0.00    200.00    200.00     1.567      8.10    0.0   38.1
  CC-S2                   27.20           2      0.00    200.00    200.00     1.567      8.10    0.0   38.1
  JK-R1                    0.97           2      0.00    347.46   1000.00     0.078      0.47    0.0    0.0
  JK-R2                    0.97           2      0.00    347.46   1000.00     0.078      0.47    0.0    0.0
  JK-S                     0.97           2      0.00    104.30    300.00     0.023      0.44    0.0    0.0
  XR-1                   100.00           1      0.00     95.00     95.00     2.736     68.18    0.0    0.0
  XR-2                   100.00           1      0.00     95.00     95.00     2.736     68.18    0.0    0.0
  XR-3                   100.00           1      0.00     95.00     95.00     2.736     68.18    0.0    0.0
  XR-4                   100.00           1      0.00     95.00     95.00     2.736     68.18    0.0    0.0
  

  Analysis begun on:  Wed Nov  5 16:28:28 2025
  Analysis ended on:  Wed Nov  5 16:28:31 2025
  Total elapsed time: 00:00:03