
  EPA STORM WATER MANAGEMENT MODEL - VERSION 5.2 (Build 5.2.4)
  PYSWMM TOOLKIT API - VERSION v1.0 (2023-11-27)
  ------------------------------------------------------------

  WARNING 04: minimum elevation drop used for Conduit WS02004404WS02004405
  WARNING 03: negative offset ignored for Link YS02001904YS02001907
  
  ****************
  Analysis Options
  ****************
  Flow Units ............... LPS
  Process Models:
    Rainfall/Runoff ........ YES
    RDII ................... NO
    Snowmelt ............... NO
    Groundwater ............ NO
    Flow Routing ........... YES
    Ponding Allowed ........ NO
    Water Quality .......... NO
  Infiltration Method ...... HORTON
  Flow Routing Method ...... DYNWAVE
  Surcharge Method ......... EXTRAN
  Starting Date ............ 08/28/2015 08:00:00
  Ending Date .............. 08/28/2015 16:00:00
  Antecedent Dry Days ...... 8.0
  Report Time Step ......... 00:01:00
  Wet Time Step ............ 00:01:00
  Dry Time Step ............ 00:01:00
  Routing Time Step ........ 30.00 sec
  Variable Time Step ....... YES
  Maximum Trials ........... 8
  Number of Threads ........ 4
  Head Tolerance ........... 0.001500 m
  
  
  **************************        Volume         Depth
  Runoff Quantity Continuity     hectare-m            mm
  **************************     ---------       -------
  Initial LID Storage ......         0.049         1.488
  Total Precipitation ......         2.231        67.273
  Evaporation Loss .........         0.000         0.000
  Infiltration Loss ........         0.076         2.282
  Surface Runoff ...........         1.660        50.049
  Final Storage ............         0.546        16.462
  Continuity Error (%) .....        -0.046
  
  
  **************************        Volume        Volume
  Flow Routing Continuity        hectare-m      10^6 ltr
  **************************     ---------     ---------
  Dry Weather Inflow .......         0.602         6.020
  Wet Weather Inflow .......         1.660        16.605
  Groundwater Inflow .......         0.000         0.000
  RDII Inflow ..............         0.000         0.000
  External Inflow ..........         0.105         1.045
  External Outflow .........         1.594        15.942
  Flooding Loss ............         0.784         7.843
  Evaporation Loss .........         0.000         0.000
  Exfiltration Loss ........         0.000         0.000
  Initial Stored Volume ....         0.303         3.031
  Final Stored Volume ......         0.754         7.540
  Continuity Error (%) .....       -17.317
  
  
  *************************
  Highest Continuity Errors
  *************************
  Node YS02001774 (22.71%)
  Node YS02001583 (-15.62%)
  Node YS02001884 (5.01%)
  Node YS02001754 (2.81%)
  Node YS02001767 (2.59%)
  
  
  ***************************
  Time-Step Critical Elements
  ***************************
  Link WS02006238WS02006235 (30.55%)
  Link WS02006235WS02006234 (16.47%)
  Link WS02003066WSF200 (12.02%)
  Link WS02001212WS02001213 (12.01%)
  Link WS02006252WS02006251 (12.01%)
  
  
  ********************************
  Highest Flow Instability Indexes
  ********************************
  Link WS02006113WS02006111 (43)
  Link WS02006256WS02006235 (28)
  Link WS02006111WS02006112 (24)
  Link YS02001602YS02001605 (22)
  Link WS02006252WS02006251 (22)
  
  
  *********************************
  Most Frequent Nonconverging Nodes
  *********************************
  Node CC-1 (15.79%)
  Node CC-2 (15.79%)
  Node JK-1 (15.79%)
  Node JK-2 (15.79%)
  Node WSC (15.79%)
  
  
  *************************
  Routing Time Step Summary
  *************************
  Minimum Time Step           :     0.01 sec
  Average Time Step           :     2.93 sec
  Maximum Time Step           :     6.46 sec
  % of Time in Steady State   :     0.00
  Average Iterations per Step :     3.48
  % of Steps Not Converging   :    15.79
  Time Step Frequencies       :
     30.000 - 13.228 sec      :     0.00 %
     13.228 -  5.833 sec      :    14.24 %
      5.833 -  2.572 sec      :    42.90 %
      2.572 -  1.134 sec      :    25.94 %
      1.134 -  0.500 sec      :    16.92 %
  
  
  ***************************
  Subcatchment Runoff Summary
  ***************************
  
  ------------------------------------------------------------------------------------------------------------------------------
                            Total      Total      Total      Total     Imperv       Perv      Total       Total     Peak  Runoff
                           Precip      Runon       Evap      Infil     Runoff     Runoff     Runoff      Runoff   Runoff   Coeff
  Subcatchment                 mm         mm         mm         mm         mm         mm         mm    10^6 ltr      LPS
  ------------------------------------------------------------------------------------------------------------------------------
  sub60                     67.27       0.00       0.00       1.38      44.77       4.85      49.62        0.65   451.17   0.738
  sub61                     67.27       0.00       0.00       2.11      44.73       7.24      51.97        0.95   651.01   0.773
  sub62                     67.27       0.00       0.00       0.94      47.68       3.30      50.98        1.40   894.40   0.758
  sub63                     67.27       0.00       0.00       3.84      38.31      12.14      50.45        1.15   717.88   0.750
  sub64                     67.27       0.00       0.00       1.85      43.62       6.02      49.64        1.19   712.90   0.738
  sub65                     67.27       0.00       0.00       1.69      47.08       5.49      52.58        1.45   830.20   0.782
  sub66                     67.27       0.00       0.00       4.42      37.05      11.05      48.09        2.24  1038.48   0.715
  sub67                     67.27       0.00       0.00       0.93      48.89       3.41      52.29        0.97   713.54   0.777
  sub68                     67.27       0.00       0.00       1.62      43.18       5.56      48.73        1.34   890.39   0.724
  sub69                     67.27       0.00       0.00       1.47      45.24       6.53      51.77        1.92  1083.15   0.770
  sub70                     67.27       0.00       0.00       4.85      36.25      13.88      50.13        1.45   600.57   0.745
  sub71                     67.27       0.00       0.00       0.86      43.32       2.98      46.30        1.21   726.42   0.688
  sub72                     67.27       0.00       0.00       0.82      46.79       2.78      49.57        0.68   367.69   0.737
  

  ***********************
  LID Performance Summary
  ***********************

  --------------------------------------------------------------------------------------------------------------------
                                         Total      Evap     Infil   Surface    Drain    Initial     Final  Continuity
                                        Inflow      Loss      Loss   Outflow   Outflow   Storage   Storage       Error
  Subcatchment      LID Control             mm        mm        mm        mm        mm        mm        mm           %
  --------------------------------------------------------------------------------------------------------------------
  sub60             GreenRoof            67.27      0.00      0.00      0.00      0.00      7.05     74.39       -0.10
  sub61             GreenRoof            67.27      0.00      0.00      0.00      0.00      7.05     74.39       -0.10
  sub62             GreenRoof            67.27      0.00      0.00      0.00      0.00      7.05     74.39       -0.10
  sub63             GreenRoof            67.27      0.00      0.00      0.00      0.00      7.05     74.39       -0.10
  sub64             GreenRoof            67.27      0.00      0.00      0.00      0.00      7.05     74.39       -0.10
  sub65             GreenRoof            67.27      0.00      0.00      0.00      0.00      7.05     74.39       -0.10
  sub66             GreenRoof            67.27      0.00      0.00      0.00      0.00      7.05     74.39       -0.10
  sub67             GreenRoof            67.27      0.00      0.00      0.00      0.00      7.05     74.39       -0.10
  sub68             GreenRoof            67.27      0.00      0.00      0.00      0.00      7.05     74.39       -0.10
  sub69             GreenRoof            67.27      0.00      0.00      0.00      0.00      7.05     74.39       -0.10
  sub70             GreenRoof            67.27      0.00      0.00      0.00      0.00      7.05     74.39       -0.10
  sub71             GreenRoof            67.27      0.00      0.00      0.00      0.00      7.05     74.39       -0.10
  sub72             GreenRoof            67.27      0.00      0.00      0.00      0.00      7.05     74.39       -0.10
  
  ******************
  Node Depth Summary
  ******************
  
  ---------------------------------------------------------------------------------
                                 Average  Maximum  Maximum  Time of Max    Reported
                                   Depth    Depth      HGL   Occurrence   Max Depth
  Node                 Type       Meters   Meters   Meters  days hr:min      Meters
  ---------------------------------------------------------------------------------
  WS02001211           JUNCTION     0.76     0.79     5.63     0  01:58        0.79
  WS02001212           JUNCTION     0.46     0.50     5.56     0  01:56        0.50
  WS02001213           JUNCTION     0.68     0.75     5.51     0  01:56        0.75
  WS02003059           JUNCTION     0.73     0.79     5.48     0  01:55        0.79
  WS02003060           JUNCTION     0.38     0.50     5.43     0  01:55        0.50
  WS02003066           JUNCTION     0.17     0.29     5.84     0  01:54        0.29
  WS02003067           JUNCTION     0.44     0.69     6.01     0  01:54        0.69
  WS02003069           JUNCTION     0.43     0.56     5.15     0  01:55        0.56
  WS02003072           JUNCTION     0.49     0.62     4.99     0  01:56        0.62
  WS02003073           JUNCTION     0.29     0.38     4.45     0  01:57        0.38
  WS02004138           JUNCTION     0.19     0.20     7.45     0  00:00        0.19
  WS02004139           JUNCTION     0.71     0.73     5.64     0  01:58        0.73
  WS02004401           JUNCTION     0.53     0.84     6.84     0  01:51        0.83
  WS02004402           JUNCTION     0.56     0.86     6.82     0  01:51        0.86
  WS02004403           JUNCTION     0.58     0.88     6.81     0  01:51        0.88
  WS02004404           JUNCTION     0.66     0.95     6.80     0  01:51        0.95
  WS02004405           JUNCTION     0.66     0.95     6.80     0  01:52        0.95
  WS02004406           JUNCTION     0.67     0.95     6.78     0  01:52        0.95
  WS02004407           JUNCTION     0.15     0.29     6.60     0  01:52        0.29
  WS02004409           JUNCTION     0.32     0.64     6.41     0  01:52        0.64
  WS02004410           JUNCTION     0.35     0.65     6.37     0  01:53        0.65
  WS02004411           JUNCTION     0.37     0.66     6.34     0  01:53        0.66
  WS02004412           JUNCTION     0.39     0.67     6.31     0  01:53        0.67
  WS02004413           JUNCTION     0.55     0.84     6.31     0  01:54        0.84
  WS02006109           JUNCTION     0.58     1.11     7.72     0  01:46        0.97
  WS02006110           JUNCTION     0.59     1.10     7.68     0  01:46        0.92
  WS02006111           JUNCTION     0.15     0.29     6.99     0  01:48        0.29
  WS02006112           JUNCTION     0.68     1.03     6.92     0  01:50        1.02
  WS02006113           JUNCTION     0.23     0.46     7.35     0  01:48        0.45
  WS02006115           JUNCTION     0.41     0.73     6.87     0  01:50        0.73
  WS02006116           JUNCTION     0.49     0.81     6.85     0  01:51        0.81
  WS02006228           JUNCTION     0.57     1.10     7.75     0  01:46        1.02
  WS02006229           JUNCTION     0.54     1.09     7.78     0  01:46        1.03
  WS02006230           JUNCTION     0.53     1.22     7.96     0  01:46        1.10
  WS02006231           JUNCTION     0.34     0.93     8.05     0  01:46        0.86
  WS02006232           JUNCTION     0.46     1.12     8.16     0  01:46        1.05
  WS02006234           JUNCTION     0.38     1.16     8.32     0  01:46        1.06
  WS02006235           JUNCTION     0.41     1.26     8.43     0  01:46        1.15
  WS02006238           JUNCTION     0.44     1.30     8.44     0  01:46        1.18
  WS02006239           JUNCTION     0.41     1.30     8.51     0  01:46        1.20
  WS02006240           JUNCTION     0.39     1.27     8.56     0  01:46        1.12
  WS02006242           JUNCTION     0.46     1.34     8.61     0  01:46        1.20
  WS02006243           JUNCTION     0.38     1.23     8.65     0  01:46        1.12
  WS02006245           JUNCTION     0.39     1.18     8.67     0  01:46        1.11
  WS02006247           JUNCTION     0.41     1.18     8.68     0  01:46        1.13
  WS02006248           JUNCTION     0.38     1.10     8.69     0  01:46        1.07
  WS02006249           JUNCTION     0.41     1.09     8.69     0  01:46        1.09
  WS02006251           JUNCTION     0.41     1.23     8.90     0  01:46        1.23
  WS02006252           JUNCTION     0.30     1.50     9.74     0  00:00        0.79
  WS02006256           JUNCTION     0.65     2.35     9.28     0  00:00        2.35
  WSF200               JUNCTION     0.14     0.29     5.52     0  01:54        0.29
  YS02001580           JUNCTION     0.10     1.05     9.59     0  01:35        0.78
  YS02001583           JUNCTION     0.14     1.14     9.64     0  01:35        0.82
  YS02001586           JUNCTION     0.20     1.13     9.30     0  01:35        1.13
  YS02001590           JUNCTION     0.30     1.40     9.26     0  01:35        1.37
  YS02001593           JUNCTION     0.24     1.45     9.31     0  01:34        1.28
  YS02001596           JUNCTION     0.47     1.74     9.16     0  01:34        1.65
  YS02001600           JUNCTION     0.72     1.87     9.00     0  01:35        1.87
  YS02001601           JUNCTION     0.97     2.06     8.90     0  01:34        2.06
  YS02001602           JUNCTION     0.89     1.87     8.77     0  01:35        1.87
  YS02001605           JUNCTION     0.86     1.78     8.68     0  01:35        1.78
  YS02001607           JUNCTION     0.86     1.68     8.53     0  01:35        1.66
  YS02001610           JUNCTION     0.91     1.68     8.48     0  01:35        1.68
  YS02001613           JUNCTION     0.87     1.70     8.54     0  01:35        1.66
  YS02001616           JUNCTION     0.80     1.61     8.52     0  01:35        1.61
  YS02001619           JUNCTION     0.79     1.61     8.54     0  01:35        1.61
  YS02001622           JUNCTION     0.80     1.58     8.49     0  01:40        1.58
  YS02001625           JUNCTION     1.06     1.78     8.38     0  01:35        1.78
  YS02001629           JUNCTION     1.10     1.85     8.40     0  01:35        1.85
  YS02001633           JUNCTION     1.18     2.07     8.52     0  01:37        2.02
  YS02001641           JUNCTION     1.18     2.02     8.46     0  01:50        2.02
  YS02001644           JUNCTION     1.17     1.92     8.35     0  01:37        1.92
  YS02001647           JUNCTION     0.99     1.90     8.51     0  01:37        1.77
  YS02001649           JUNCTION     1.17     2.05     8.44     0  01:37        1.93
  YS02001652           JUNCTION     0.99     2.16     8.76     0  01:37        1.78
  YS02001655           JUNCTION     0.77     2.20     9.05     0  01:37        1.59
  YS02001658           JUNCTION     0.52     2.30     9.44     0  01:38        1.36
  YS02001661           JUNCTION     0.30     2.05     9.45     0  01:38        1.15
  YS02001664           JUNCTION     0.05     0.71     8.63     0  01:39        0.70
  YS02001745           JUNCTION     0.18     2.35     9.87     0  01:38        0.63
  YS02001748           JUNCTION     0.56     2.27     9.35     0  01:38        1.10
  YS02001751           JUNCTION     0.73     2.20     9.08     0  01:38        1.30
  YS02001754           JUNCTION     0.96     2.20     8.81     0  01:37        1.58
  YS02001757           JUNCTION     1.27     2.21     8.47     0  01:38        1.93
  YS02001759           JUNCTION     1.19     2.20     8.57     0  01:38        1.93
  YS02001762           JUNCTION     1.15     2.15     8.55     0  01:37        2.00
  YS02001765           JUNCTION     1.11     2.10     8.55     0  01:37        2.01
  YS02001767           JUNCTION     1.08     2.03     8.52     0  01:37        2.00
  YS02001770           JUNCTION     1.08     1.95     8.44     0  01:37        1.95
  YS02001774           JUNCTION     1.14     2.05     8.47     0  02:13        2.05
  YS02001779           JUNCTION     0.91     1.68     8.37     0  01:37        1.68
  YS02001783           JUNCTION     0.52     1.73     7.87     0  01:39        1.51
  YS02001784           JUNCTION     0.57     1.70     7.77     0  01:39        1.45
  YS02001786           JUNCTION     0.57     1.55     7.58     0  01:39        1.29
  YS02001788           JUNCTION     0.59     1.55     7.53     0  01:39        1.16
  YS02001790           JUNCTION     0.86     1.96     7.60     0  01:39        1.32
  YS02001791           JUNCTION     0.98     1.70     7.17     0  01:39        1.28
  YS02001793           JUNCTION     1.50     2.38     7.21     0  01:38        1.84
  YS02001882           JUNCTION     0.30     1.83     8.55     0  01:36        1.64
  YS02001884           JUNCTION     0.39     1.93     8.55     0  01:36        1.74
  YS02001887           JUNCTION     0.47     1.91     8.45     0  01:36        1.83
  YS02001890           JUNCTION     0.50     1.81     8.32     0  01:36        1.81
  YS02001895           JUNCTION     0.27     1.75     8.50     0  01:36        1.57
  YS02001898           JUNCTION     0.28     1.77     8.51     0  01:36        1.58
  YS02001901           JUNCTION     0.39     1.79     8.40     0  01:36        1.69
  YS02001904           JUNCTION     0.37     1.68     8.31     0  01:36        1.66
  YS02001907           JUNCTION     0.69     1.96     8.25     0  01:36        1.96
  YS02001910           JUNCTION     0.49     2.10     8.61     0  01:36        1.97
  YS02001915           JUNCTION     0.30     2.00     8.72     0  01:36        2.00
  YS02001918           JUNCTION     0.17     1.81     8.88     0  01:36        1.81
  YS02001920           JUNCTION     0.24     2.14     9.15     0  01:37        1.84
  YS02001923           JUNCTION     0.12     2.03     9.29     0  01:37        1.56
  YS02001926           JUNCTION     0.15     1.90     9.35     0  01:37        1.35
  YS02001929           JUNCTION     0.08     1.78     9.47     0  01:37        1.08
  YS02006553           JUNCTION     0.69     2.03     8.32     0  01:39        1.98
  YS02006556           JUNCTION     0.66     2.08     8.40     0  01:39        1.95
  YS02006558           JUNCTION     0.71     2.16     8.42     0  01:39        1.99
  YS02006561           JUNCTION     0.16     1.30     7.96     0  01:39        1.12
  YS02163301           JUNCTION     1.13     1.97     8.49     0  01:50        1.97
  YS02163601           JUNCTION     1.23     2.08     8.48     0  01:37        2.08
  YS02164001           JUNCTION     1.16     2.05     8.51     0  01:50        2.05
  CC-1                 OUTFALL      0.00     0.00     0.00     0  00:00        0.00
  CC-2                 OUTFALL      0.00     0.00     0.00     0  00:00        0.00
  JK-1                 OUTFALL      0.00     0.00     0.00     0  00:00        0.00
  JK-2                 OUTFALL      0.00     0.00     0.00     0  00:00        0.00
  WSC                  OUTFALL      0.29     0.38     1.05     0  01:57        0.38
  CC-storage           STORAGE      1.88     2.30     7.80     0  02:17        2.30
  JK-storage           STORAGE      5.00     5.80     6.60     0  01:39        5.80
  XR-storage           STORAGE      0.24     5.00     3.00     0  00:00        4.91
  
  
  *******************
  Node Inflow Summary
  *******************
  
  -------------------------------------------------------------------------------------------------
                                  Maximum  Maximum                  Lateral       Total        Flow
                                  Lateral    Total  Time of Max      Inflow      Inflow     Balance
                                   Inflow   Inflow   Occurrence      Volume      Volume       Error
  Node                 Type           LPS      LPS  days hr:min    10^6 ltr    10^6 ltr     Percent
  -------------------------------------------------------------------------------------------------
  WS02001211           JUNCTION      7.35   389.14     0  03:34       0.212        11.1       0.354
  WS02001212           JUNCTION      0.00   390.85     0  03:36           0        11.1       0.214
  WS02001213           JUNCTION      0.00   392.61     0  03:35           0        11.1       0.248
  WS02003059           JUNCTION      0.00   395.66     0  03:35           0          11       0.343
  WS02003060           JUNCTION     16.53   884.08     0  01:54       0.476        15.4       0.174
  WS02003066           JUNCTION      0.00   497.57     0  01:54           0        3.98       0.079
  WS02003067           JUNCTION      0.00   496.97     0  01:54           0        3.99       0.173
  WS02003069           JUNCTION      0.32   883.96     0  01:55     0.00922        15.4       0.189
  WS02003072           JUNCTION      0.00   883.19     0  01:55           0        15.4       0.235
  WS02003073           JUNCTION      1.82   884.54     0  01:56      0.0524        15.4       0.267
  WS02004138           JUNCTION      0.00   380.00     0  00:00           0        10.9       0.059
  WS02004139           JUNCTION      0.32   395.52     0  00:00     0.00924        10.9       0.413
  WS02004401           JUNCTION      0.00   526.93     0  01:51           0        4.15       0.342
  WS02004402           JUNCTION      0.00   525.82     0  01:51           0        4.14       0.337
  WS02004403           JUNCTION      0.00   522.61     0  01:51           0        4.12       0.320
  WS02004404           JUNCTION      0.16   522.43     0  01:51     0.00467        4.11       0.272
  WS02004405           JUNCTION      0.04   522.30     0  01:51      0.0011         4.1       0.366
  WS02004406           JUNCTION      0.00   521.29     0  01:51           0        4.09       0.634
  WS02004407           JUNCTION      0.00   520.92     0  01:52           0        4.06       0.089
  WS02004409           JUNCTION      0.00   520.05     0  01:52           0        4.06       0.222
  WS02004410           JUNCTION      0.00   511.00     0  01:52           0        4.05       0.278
  WS02004411           JUNCTION      0.00   507.54     0  01:53           0        4.04       0.305
  WS02004412           JUNCTION      0.00   502.90     0  01:53           0        4.03       0.354
  WS02004413           JUNCTION      0.00   499.03     0  01:53           0        4.01       0.562
  WS02006109           JUNCTION      1.23   549.54     0  01:46      0.0354         4.2      -0.020
  WS02006110           JUNCTION      0.00   550.01     0  01:46           0        4.21       0.217
  WS02006111           JUNCTION      0.00   559.62     0  01:48           0        4.19       0.042
  WS02006112           JUNCTION      0.00   540.75     0  01:48           0        4.19       0.523
  WS02006113           JUNCTION      0.00   561.87     0  01:46           0         4.2       0.075
  WS02006115           JUNCTION      0.00   539.81     0  01:49           0        4.17       0.263
  WS02006116           JUNCTION      0.00   534.79     0  01:51           0        4.16       0.218
  WS02006228           JUNCTION      0.00   547.37     0  01:46           0        4.17      -0.006
  WS02006229           JUNCTION      0.00   546.23     0  01:46           0        4.18       0.209
  WS02006230           JUNCTION     10.28   583.58     0  01:46       0.296        4.19       0.173
  WS02006231           JUNCTION      0.00   565.51     0  01:45           0        3.88      -0.152
  WS02006232           JUNCTION      0.00   564.42     0  01:45           0         3.9       0.497
  WS02006234           JUNCTION      0.00   560.02     0  01:45           0        3.89      -0.240
  WS02006235           JUNCTION      0.00   555.71     0  01:45           0        3.92       0.402
  WS02006238           JUNCTION      0.00   418.70     0  01:51           0        3.82      -0.669
  WS02006239           JUNCTION      0.00   418.96     0  01:51           0         3.8      -0.438
  WS02006240           JUNCTION      0.00   416.51     0  01:51           0        3.79      -0.087
  WS02006242           JUNCTION      0.00   417.00     0  01:51           0        3.79       0.119
  WS02006243           JUNCTION      0.00   416.48     0  01:51           0        3.79      -0.043
  WS02006245           JUNCTION      0.00   415.21     0  01:51           0        3.82       0.947
  WS02006247           JUNCTION      0.00   415.56     0  01:50           0        3.83       0.169
  WS02006248           JUNCTION      0.00   415.20     0  01:50           0        3.84       0.187
  WS02006249           JUNCTION      0.00   472.00     0  05:02           0         3.9       1.037
  WS02006251           JUNCTION      0.08   404.65     0  03:51     0.00222         3.9       0.121
  WS02006252           JUNCTION      0.00   400.00     0  00:00           0        3.89      -0.128
  WS02006256           JUNCTION      0.00   300.00     0  00:00           0       0.115      -1.754
  WSF200               JUNCTION      0.00   497.85     0  01:54           0        3.98       0.067
  YS02001580           JUNCTION      0.00   226.04     0  01:35           0      0.0046       1.950
  YS02001583           JUNCTION      0.00   272.85     0  01:35           0      0.0147     -13.510
  YS02001586           JUNCTION    600.57   600.65     0  01:42        1.45        1.46       0.116
  YS02001590           JUNCTION      0.00   318.28     0  01:50           0        1.21       0.038
  YS02001593           JUNCTION      0.00   318.53     0  01:40           0        1.21       0.027
  YS02001596           JUNCTION      0.00   318.39     0  01:40           0        1.21      -0.045
  YS02001600           JUNCTION      0.00   318.17     0  01:40           0        1.23       0.288
  YS02001601           JUNCTION   1083.15  1400.57     0  01:40        1.92        3.16       0.255
  YS02001602           JUNCTION      0.00   585.88     0  01:35           0        2.08       0.421
  YS02001605           JUNCTION      0.00   585.84     0  01:35           0        1.93       0.680
  YS02001607           JUNCTION      0.00   585.62     0  01:35           0        1.93       0.814
  YS02001610           JUNCTION      0.00   552.73     0  01:35           0        2.03       0.790
  YS02001613           JUNCTION      0.00   519.84     0  01:35           0        1.66       1.000
  YS02001616           JUNCTION      0.00   454.25     0  01:35           0        1.69       0.806
  YS02001619           JUNCTION   1038.48  1038.48     0  01:41        2.24        3.86       0.334
  YS02001622           JUNCTION      0.00   901.78     0  01:38           0         3.8       0.515
  YS02001625           JUNCTION      0.00  1134.08     0  01:41           0        3.89       1.041
  YS02001629           JUNCTION      0.00   774.29     0  01:36           0        3.09       0.513
  YS02001633           JUNCTION    830.40  1381.43     0  01:36        1.45        4.41       0.711
  YS02001641           JUNCTION      0.00  1377.15     0  01:36           0        4.26       0.490
  YS02001644           JUNCTION    712.94  1934.16     0  01:36        1.19        5.43       0.462
  YS02001647           JUNCTION      0.00  1934.32     0  01:36           0        5.29       0.484
  YS02001649           JUNCTION      0.00  2229.05     0  01:37           0        6.42       0.561
  YS02001652           JUNCTION      0.00   899.61     0  01:39           0        1.18       1.655
  YS02001655           JUNCTION      0.15   898.09     0  01:39     0.00443        1.19       1.483
  YS02001658           JUNCTION      0.00   896.34     0  01:39           0        1.18       0.136
  YS02001661           JUNCTION      0.00   849.76     0  01:39           0        1.16       0.065
  YS02001664           JUNCTION    717.88   717.88     0  01:39        1.15        1.15      -0.043
  YS02001745           JUNCTION    451.17   719.26     0  01:38       0.652       0.704       0.326
  YS02001748           JUNCTION      0.04   768.83     0  01:37      0.0013       0.724       0.156
  YS02001751           JUNCTION      0.01   628.07     0  01:38    0.000317       0.699       2.245
  YS02001754           JUNCTION      0.26   628.50     0  01:38     0.00749       0.703       2.891
  YS02001757           JUNCTION      0.00  3520.38     0  01:38           0         9.2       1.045
  YS02001759           JUNCTION    651.05  1466.32     0  01:38       0.955        2.21       1.007
  YS02001762           JUNCTION      0.00   812.58     0  01:38           0        1.27       1.635
  YS02001765           JUNCTION      0.00   810.98     0  01:38           0        1.29       1.822
  YS02001767           JUNCTION      0.54   811.25     0  01:38      0.0154        1.33       2.660
  YS02001770           JUNCTION    894.55   894.55     0  01:39         1.4        1.43       2.089
  YS02001774           JUNCTION      0.00   718.48     0  01:37           0       0.109      29.383
  YS02001779           JUNCTION      0.01   729.31     0  01:37    0.000144      0.0645      22.299
  YS02001783           JUNCTION      0.00  1162.37     0  01:37           0        3.35       0.212
  YS02001784           JUNCTION      1.06  1163.03     0  01:37      0.0305        3.38       0.322
  YS02001786           JUNCTION      0.06  1163.25     0  01:37     0.00162        3.37       0.406
  YS02001788           JUNCTION      0.07  1163.15     0  01:37     0.00204        3.36       0.402
  YS02001790           JUNCTION      0.15  1194.18     0  01:37     0.00446        3.35       0.503
  YS02001791           JUNCTION      0.00  1290.57     0  01:38           0        3.33       0.417
  YS02001793           JUNCTION      0.00  1215.06     0  01:38           0        3.32       0.509
  YS02001882           JUNCTION      0.00   115.82     0  01:36           0      0.0126       5.093
  YS02001884           JUNCTION      0.00   176.56     0  01:36           0      0.0486       5.275
  YS02001887           JUNCTION    713.99   713.99     0  01:38       0.986        1.02       0.435
  YS02001890           JUNCTION      0.00   714.43     0  01:38           0       0.978       0.500
  YS02001895           JUNCTION      0.00   616.22     0  01:36           0       0.931       0.123
  YS02001898           JUNCTION      0.00   615.74     0  01:36           0        0.93      -0.004
  YS02001901           JUNCTION      0.00   613.62     0  01:36           0       0.932       0.355
  YS02001904           JUNCTION      0.00   612.77     0  01:36           0       0.939       0.272
  YS02001907           JUNCTION      0.00  1719.70     0  01:38           0        2.91       0.574
  YS02001910           JUNCTION      0.00  1180.07     0  01:38           0        1.98       0.355
  YS02001915           JUNCTION    726.44  1180.19     0  01:38        1.21        2.03       0.066
  YS02001918           JUNCTION      0.00   871.97     0  01:36           0       0.853      -0.110
  YS02001920           JUNCTION      2.87   799.16     0  01:37      0.0827       0.826       0.085
  YS02001923           JUNCTION      0.04  1088.17     0  01:37     0.00109       0.724      -0.233
  YS02001926           JUNCTION      0.05  1404.80     0  01:37      0.0015       0.704       0.010
  YS02001929           JUNCTION    367.69   923.55     0  01:37       0.682       0.687      -0.202
  YS02006553           JUNCTION      0.00   670.67     0  01:57           0        2.04       0.587
  YS02006556           JUNCTION      0.00   670.07     0  01:56           0        2.05       0.364
  YS02006558           JUNCTION    891.27  1180.35     0  01:36        1.37        3.39       0.113
  YS02006561           JUNCTION      0.00  1185.98     0  01:36           0        3.35      -0.006
  YS02163301           JUNCTION      0.00   774.15     0  01:36           0        3.08       0.757
  YS02163601           JUNCTION      0.11  1381.08     0  01:36     0.00317        4.28       0.693
  YS02164001           JUNCTION      0.00  1379.89     0  01:36           0        4.26       0.443
  CC-1                 OUTFALL       0.00   683.00     0  00:00           0       0.208       0.000
  CC-2                 OUTFALL       0.00   683.00     0  00:00           0       0.208       0.000
  JK-1                 OUTFALL       0.00  1000.00     0  00:00           0      0.0791       0.000
  JK-2                 OUTFALL       0.00  1000.00     0  00:00           0      0.0791       0.000
  WSC                  OUTFALL       0.00   883.78     0  01:57           0        15.4       0.000
  CC-storage           STORAGE       0.00  3521.98     0  01:38           0        11.1       0.293
  JK-storage           STORAGE       0.00  1186.02     0  01:37           0        3.45       0.486
  XR-storage           STORAGE     200.00   200.00     0  00:00        5.76        6.36     -41.886
  
  
  **********************
  Node Surcharge Summary
  **********************
  
  Surcharging occurs when water rises above the top of the highest conduit.
  ---------------------------------------------------------------------
                                               Max. Height   Min. Depth
                                   Hours       Above Crown    Below Rim
  Node                 Type      Surcharged         Meters       Meters
  ---------------------------------------------------------------------
  WS02006109           JUNCTION        1.69          0.287        1.533
  WS02006110           JUNCTION        0.06          0.185        1.665
  WS02006112           JUNCTION        0.04          0.033        1.647
  WS02006228           JUNCTION        1.68          0.271        1.929
  WS02006229           JUNCTION        1.70          0.285        2.165
  WS02006230           JUNCTION        0.06          0.136        1.434
  WS02006231           JUNCTION        0.08          0.221        1.309
  WS02006232           JUNCTION        1.75          0.421        1.059
  WS02006234           JUNCTION        0.11          0.444        0.796
  WS02006235           JUNCTION        1.70          0.554        0.736
  WS02006238           JUNCTION        1.72          0.581        0.849
  WS02006239           JUNCTION        1.70          0.559        0.731
  WS02006240           JUNCTION        1.71          0.560        0.830
  WS02006242           JUNCTION        1.78          0.611        0.209
  WS02006243           JUNCTION        1.72          0.518        0.252
  WS02006245           JUNCTION        1.72          0.475        0.375
  WS02006247           JUNCTION        1.74          0.469        0.291
  WS02006248           JUNCTION        1.72          0.380        0.000
  WS02006249           JUNCTION        1.73          0.390        0.000
  WS02006251           JUNCTION        0.08          0.203        0.977
  WS02006252           JUNCTION        2.60          1.100        0.000
  WS02006256           JUNCTION        5.05          2.050        0.000
  YS02001580           JUNCTION        0.53          0.450        0.000
  YS02001583           JUNCTION        0.54          0.500        0.000
  YS02001586           JUNCTION        0.80          0.510        0.000
  YS02001590           JUNCTION        0.90          0.750        0.000
  YS02001593           JUNCTION        0.91          0.826        0.014
  YS02001596           JUNCTION        1.13          1.015        0.055
  YS02001600           JUNCTION        1.67          1.190        0.000
  YS02001601           JUNCTION        6.52          1.440        0.000
  YS02001602           JUNCTION        6.35          1.270        0.000
  YS02001605           JUNCTION        6.34          1.180        0.000
  YS02001607           JUNCTION        1.45          0.680        0.000
  YS02001610           JUNCTION        1.60          0.680        0.000
  YS02001613           JUNCTION        1.46          0.700        0.000
  YS02001616           JUNCTION        1.26          0.610        0.000
  YS02001619           JUNCTION        1.20          0.610        0.000
  YS02001622           JUNCTION        1.27          0.585        0.035
  YS02001625           JUNCTION        5.57          0.780        0.000
  YS02001629           JUNCTION        1.16          0.470        0.000
  YS02001633           JUNCTION        6.42          1.051        0.009
  YS02001641           JUNCTION        6.42          1.022        0.078
  YS02001644           JUNCTION        6.41          0.920        0.000
  YS02001647           JUNCTION        5.54          0.900        0.000
  YS02001649           JUNCTION        6.39          1.050        0.000
  YS02001652           JUNCTION        3.94          1.130        0.000
  YS02001655           JUNCTION        1.22          1.200        0.000
  YS02001658           JUNCTION        0.13          1.300        0.000
  YS02001661           JUNCTION        0.01          0.979        0.411
  YS02001745           JUNCTION        0.01          1.350        0.000
  YS02001748           JUNCTION        0.02          1.190        0.000
  YS02001751           JUNCTION        0.82          1.200        0.000
  YS02001754           JUNCTION        3.29          1.150        0.000
  YS02001757           JUNCTION        6.39          1.210        0.000
  YS02001759           JUNCTION        6.39          1.203        0.007
  YS02001762           JUNCTION        6.38          1.150        0.000
  YS02001765           JUNCTION        6.38          1.100        0.000
  YS02001767           JUNCTION        6.38          1.030        0.000
  YS02001770           JUNCTION        6.08          0.920        0.000
  YS02001774           JUNCTION        6.38          1.050        0.000
  YS02001779           JUNCTION        2.77          0.680        0.000
  YS02001783           JUNCTION        0.63          0.926        0.674
  YS02001784           JUNCTION        0.64          0.904        0.586
  YS02001786           JUNCTION        0.62          0.754        0.676
  YS02001788           JUNCTION        0.57          0.753        0.727
  YS02001790           JUNCTION        6.34          1.157        0.000
  YS02001791           JUNCTION        6.34          0.901        1.019
  YS02001793           JUNCTION        6.35          1.380        1.220
  YS02001882           JUNCTION        0.47          0.830        0.000
  YS02001884           JUNCTION        0.48          0.870        0.000
  YS02001887           JUNCTION        0.51          0.858        0.092
  YS02001890           JUNCTION        0.53          0.760        0.000
  YS02001895           JUNCTION        0.46          0.750        0.000
  YS02001898           JUNCTION        0.46          0.740        0.000
  YS02001901           JUNCTION        0.50          0.795        0.075
  YS02001904           JUNCTION        0.50          0.680        0.170
  YS02001907           JUNCTION        0.67          0.950        0.000
  YS02001910           JUNCTION        0.55          1.100        0.000
  YS02001915           JUNCTION        0.47          1.000        0.000
  YS02001918           JUNCTION        0.38          0.810        0.000
  YS02001920           JUNCTION        0.39          1.140        0.000
  YS02001923           JUNCTION        0.02          0.820        0.000
  YS02001926           JUNCTION        0.02          0.900        0.000
  YS02001929           JUNCTION        0.01          0.780        0.000
  YS02006553           JUNCTION        0.68          1.031        0.159
  YS02006556           JUNCTION        0.61          1.045        0.305
  YS02006558           JUNCTION        0.60          1.057        0.343
  YS02006561           JUNCTION        0.42          0.500        0.650
  YS02163301           JUNCTION        6.22          0.971        0.059
  YS02163601           JUNCTION        6.42          1.080        0.000
  YS02164001           JUNCTION        6.42          1.047        0.053
  
  
  *********************
  Node Flooding Summary
  *********************
  
  Flooding refers to all water that overflows a node, whether it ponds or not.
  --------------------------------------------------------------------------
                                                             Total   Maximum
                                 Maximum   Time of Max       Flood    Ponded
                        Hours       Rate    Occurrence      Volume     Depth
  Node                 Flooded       LPS   days hr:min    10^6 ltr    Meters
  --------------------------------------------------------------------------
  WS02006248              0.01      0.51      0  01:46       0.000     0.000
  WS02006249              0.08     75.79      0  01:46       0.019     0.000
  WS02006252              0.01    258.58      0  03:41       0.000     0.000
  WS02006256              0.10    293.19      0  00:00       0.036     0.000
  YS02001580              0.01    193.15      0  01:35       0.001     0.000
  YS02001583              0.01    232.71      0  01:35       0.001     0.000
  YS02001586              0.42    282.86      0  01:42       0.241     0.000
  YS02001590              0.01     21.43      0  01:35       0.000     0.000
  YS02001600              0.01      3.39      0  01:35       0.000     0.000
  YS02001601              0.67   1002.51      0  01:40       1.071     0.000
  YS02001602              0.71     62.02      0  01:56       0.144     0.000
  YS02001605              0.01     18.46      0  01:35       0.000     0.000
  YS02001607              0.01    147.58      0  01:35       0.001     0.000
  YS02001610              0.52    518.30      0  01:42       0.479     0.000
  YS02001613              0.01     33.51      0  01:35       0.000     0.000
  YS02001616              0.01    202.89      0  01:35       0.001     0.000
  YS02001619              0.01     92.73      0  01:35       0.000     0.000
  YS02001625              0.62   1133.55      0  01:41       0.878     0.000
  YS02001629              0.08    233.33      0  01:35       0.037     0.000
  YS02001644              0.11    574.82      0  01:39       0.098     0.000
  YS02001647              0.01      9.80      0  01:37       0.000     0.000
  YS02001649              0.01     69.01      0  01:37       0.000     0.000
  YS02001652              0.01     46.10      0  01:38       0.000     0.000
  YS02001655              0.01    570.24      0  01:37       0.001     0.000
  YS02001658              0.01    295.23      0  01:38       0.000     0.000
  YS02001745              0.01     78.87      0  01:38       0.000     0.000
  YS02001748              0.01    408.78      0  01:38       0.001     0.000
  YS02001751              0.01     47.37      0  01:38       0.000     0.000
  YS02001754              0.01    253.67      0  01:37       0.001     0.000
  YS02001757              0.01     11.99      0  01:38       0.000     0.000
  YS02001762              0.01     77.96      0  01:37       0.000     0.000
  YS02001765              0.01     21.68      0  01:37       0.000     0.000
  YS02001767              0.01    260.44      0  01:37       0.000     0.000
  YS02001770              0.01    279.77      0  01:37       0.001     0.000
  YS02001774              0.01      1.94      0  02:13       0.000     0.000
  YS02001779              0.08    684.66      0  01:37       0.040     0.000
  YS02001790              0.01    127.12      0  01:39       0.000     0.000
  YS02001882              0.01     59.88      0  01:36       0.000     0.000
  YS02001884              0.01     63.85      0  01:36       0.000     0.000
  YS02001890              0.12    266.45      0  01:36       0.042     0.000
  YS02001895              0.01    174.48      0  01:36       0.000     0.000
  YS02001898              0.01    232.04      0  01:36       0.001     0.000
  YS02001907              0.32   1506.74      0  01:39       0.856     0.000
  YS02001910              0.01     81.17      0  01:36       0.000     0.000
  YS02001915              0.01    203.13      0  01:36       0.000     0.000
  YS02001918              0.01    434.20      0  01:36       0.004     0.000
  YS02001920              0.01     66.07      0  01:37       0.000     0.000
  YS02001923              0.01    300.38      0  01:37       0.001     0.000
  YS02001926              0.01    634.05      0  01:37       0.004     0.000
  YS02001929              0.01    789.17      0  01:37       0.003     0.000
  YS02163601              0.01      5.09      0  01:37       0.000     0.000
  CC-storage              0.77    855.83      0  02:17       1.004     0.000
  JK-storage              6.34   1049.53      0  01:39       2.871     0.000
  
  
  **********************
  Storage Volume Summary
  **********************
  
  ------------------------------------------------------------------------------------------------
                         Average    Avg   Evap  Exfil     Maximum    Max    Time of Max    Maximum
                          Volume   Pcnt   Pcnt   Pcnt      Volume   Pcnt     Occurrence    Outflow
  Storage Unit           1000 m³   Full   Loss   Loss     1000 m³   Full    days hr:min        LPS
  ------------------------------------------------------------------------------------------------
  CC-storage               5.241   81.8    0.0    0.0       6.410  100.0       0  02:17    1783.53
  JK-storage               0.251   86.1    0.0    0.0       0.291  100.0       0  01:39    2300.00
  XR-storage               0.028    2.0    0.0    0.0       0.600   41.7       0  00:00     380.00
  
  
  ***********************
  Outfall Loading Summary
  ***********************
  
  -----------------------------------------------------------
                         Flow       Avg       Max       Total
                         Freq      Flow      Flow      Volume
  Outfall Node           Pcnt       LPS       LPS    10^6 ltr
  -----------------------------------------------------------
  CC-1                   1.04    683.00    683.00       0.208
  CC-2                   1.04    683.00    683.00       0.208
  JK-1                   0.97    347.46   1000.00       0.079
  JK-2                   0.97    347.46   1000.00       0.079
  WSC                   99.94    560.51    883.78      15.367
  -----------------------------------------------------------
  System                20.79   2621.43   3366.35      15.942
  
  
  ********************
  Link Flow Summary
  ********************
  
  -----------------------------------------------------------------------------
                                 Maximum  Time of Max   Maximum    Max/    Max/
                                  |Flow|   Occurrence   |Veloc|    Full    Full
  Link                 Type          LPS  days hr:min     m/sec    Flow   Depth
  -----------------------------------------------------------------------------
  1                    CONDUIT    883.78     0  01:57      3.22    0.31    0.38
  WS02001211WS02001212 CONDUIT    390.85     0  03:36      0.78    0.30    0.64
  WS02001212WS02001213 CONDUIT    392.61     0  03:35      1.32    0.61    0.46
  WS02001213WS02003059 CONDUIT    395.66     0  03:35      0.85    0.65    0.76
  WS02003059WS02003060 CONDUIT    399.93     0  03:35      0.95    0.26    0.65
  WS02003060WS02003069 CONDUIT    883.64     0  01:55      1.84    0.35    0.44
  WS02003066WSF200     CONDUIT    497.85     0  01:54      2.72    0.08    0.22
  WS02003067WS02003066 CONDUIT    497.57     0  01:54      1.16    0.16    0.41
  WS02003069WS02003072 CONDUIT    883.19     0  01:55      1.59    0.43    0.49
  WS02003072WS02003073 CONDUIT    882.72     0  01:56      1.69    1.91    0.47
  WS02004138WS02004139 CONDUIT    395.20     0  00:00      3.65    0.08    0.44
  WS02004139WS02001211 CONDUIT    381.79     0  03:34      0.91    0.48    0.59
  WS02004401WS02004402 CONDUIT    525.82     0  01:51      0.99    0.63    0.85
  WS02004402WS02004403 CONDUIT    522.61     0  01:51      0.99    0.75    0.87
  WS02004403WS02004404 CONDUIT    522.27     0  01:51      0.93    0.38    0.92
  WS02004404WS02004405 CONDUIT    522.26     0  01:51      1.10    5.12    0.95
  WS02004405WS02004406 CONDUIT    521.29     0  01:51      1.03    1.03    0.95
  WS02004406WS02004407 CONDUIT    520.92     0  01:52      1.02    0.23    0.62
  WS02004407WS02004409 CONDUIT    520.05     0  01:52      1.48    0.18    0.46
  WS02004409WS02004410 CONDUIT    511.00     0  01:52      0.97    0.66    0.64
  WS02004410WS02004411 CONDUIT    507.54     0  01:53      0.93    0.69    0.66
  WS02004411WS02004412 CONDUIT    502.90     0  01:53      0.90    0.71    0.67
  WS02004412WS02004413 CONDUIT    499.03     0  01:53      0.79    0.33    0.75
  WS02004413WS02003067 CONDUIT    496.97     0  01:54      1.06    0.21    0.57
  WS02006109WS02006110 CONDUIT    550.01     0  01:46      1.09    1.06    1.00
  WS02006110WS02006113 CONDUIT    561.87     0  01:46      1.36    0.51    0.79
  WS02006111WS02006112 CONDUIT    540.75     0  01:48      1.83    0.26    0.67
  WS02006112WS02006115 CONDUIT    539.81     0  01:49      0.77    0.32    0.86
  WS02006113WS02006111 CONDUIT    559.62     0  01:48      2.46    0.67    0.46
  WS02006115WS02006116 CONDUIT    534.79     0  01:51      0.98    0.69    0.74
  WS02006116WS02004401 CONDUIT    526.93     0  01:51      1.00    0.73    0.82
  WS02006228WS02006109 CONDUIT    548.31     0  01:46      1.09    2.40    1.00
  WS02006229WS02006228 CONDUIT    547.37     0  01:46      1.13    1.81    1.00
  WS02006230WS02006229 CONDUIT    546.23     0  01:46      1.42   12.16    1.00
  WS02006231WS02006230 CONDUIT    573.30     0  01:46      1.55    8.70    1.00
  WS02006232WS02006231 CONDUIT    565.51     0  01:45      1.48    1.18    1.00
  WS02006234WS02006232 CONDUIT    564.42     0  01:45      1.47    1.14    1.00
  WS02006235WS02006234 CONDUIT    560.02     0  01:45      1.46    5.91    1.00
  WS02006238WS02006235 CONDUIT    420.18     0  01:50      1.50    0.94    1.00
  WS02006239WS02006238 CONDUIT    418.70     0  01:51      1.21    1.34    1.00
  WS02006240WS02006239 CONDUIT    418.96     0  01:51      1.32    1.32    1.00
  WS02006242WS02006240 CONDUIT    416.51     0  01:51      1.18    1.65    1.00
  WS02006243WS02006242 CONDUIT    417.00     0  01:51      1.44    0.89    1.00
  WS02006245WS02006243 CONDUIT    416.48     0  01:51      1.45    1.23    1.00
  WS02006247WS02006245 CONDUIT    415.21     0  01:51      1.43    3.29    1.00
  WS02006248WS02006247 CONDUIT    415.56     0  01:50      1.47    0.90    1.00
  WS02006249WS02006248 CONDUIT    415.20     0  01:50      1.41    2.27    1.00
  WS02006251WS02006249 CONDUIT    472.00     0  05:02      1.99    1.36    1.00
  WS02006252WS02006251 CONDUIT    404.58     0  03:51     25.88    1.49    1.00
  WS02006256WS02006235 CONDUIT    288.91     0  00:00      4.23    3.06    1.00
  WSF200WS02003060     CONDUIT    498.78     0  01:54      1.55    0.11    0.33
  YS02001580YS02001583 CONDUIT    226.04     0  01:35      1.00    0.88    1.00
  YS02001583YS02001586 CONDUIT    236.61     0  01:35      1.07    0.36    1.00
  YS02001586YS02001590 CONDUIT    318.28     0  01:50      1.30    0.56    1.00
  YS02001590YS02001593 CONDUIT    318.53     0  01:40      1.13    2.00    1.00
  YS02001593YS02001596 CONDUIT    318.39     0  01:40      1.61    0.50    1.00
  YS02001596YS02001600 CONDUIT    318.17     0  01:40      1.13    0.62    1.00
  YS02001600YS02001601 CONDUIT    318.12     0  01:50      1.13    0.55    1.00
  YS02001601YS02001602 CONDUIT    585.88     0  01:35      2.07    2.12    1.00
  YS02001602YS02001605 CONDUIT    585.84     0  01:35      2.07   12.40    1.00
  YS02001605YS02001607 CONDUIT    585.62     0  01:35      2.07    3.21    1.00
  YS02001607YS02001610 CONDUIT    552.73     0  01:35      0.74    0.53    1.00
  YS02001610YS02001613 CONDUIT    519.84     0  01:35      0.70    0.60    1.00
  YS02001613YS02001616 CONDUIT    454.25     0  01:35      0.68    0.39    1.00
  YS02001616YS02001619 CONDUIT    397.94     0  01:35      0.66    0.69    1.00
  YS02001619YS02001622 CONDUIT    901.78     0  01:38      1.34    1.33    1.00
  YS02001622YS02001625 CONDUIT    902.15     0  01:38      1.15    0.48    1.00
  YS02001625YS02001629 CONDUIT    774.29     0  01:36      0.99    0.37    1.00
  YS02001629YS02163301 CONDUIT    774.15     0  01:36      0.99    0.95    1.00
  YS02001633YS02163601 CONDUIT   1380.97     0  01:36      1.76    1.45    1.00
  YS02001641YS02001644 CONDUIT   1376.36     0  01:36      1.75    4.45    1.00
  YS02001644YS02001647 CONDUIT   1934.32     0  01:36      2.46    1.14    1.00
  YS02001647YS02001649 CONDUIT   1942.49     0  01:36      2.47    1.03    1.00
  YS02001649YS02001757 CONDUIT   2226.64     0  01:37      2.84    1.35    1.00
  YS02001652YS02001649 CONDUIT    898.48     0  01:39      1.14    0.45    1.00
  YS02001655YS02001652 CONDUIT    899.61     0  01:39      1.61    0.44    1.00
  YS02001658YS02001655 CONDUIT    897.93     0  01:39      2.12    0.38    1.00
  YS02001661YS02001658 CONDUIT    896.34     0  01:39      2.51    0.35    1.00
  YS02001664YS02001661 CONDUIT    849.76     0  01:39      2.54    0.27    0.85
  YS02001745YS02001748 CONDUIT    623.84     0  01:38      2.45    0.24    1.00
  YS02001748YS02001751 CONDUIT    628.06     0  01:38      1.94    0.32    1.00
  YS02001751YS02001754 CONDUIT    628.24     0  01:38      1.61    0.30    1.00
  YS02001754YS02001757 CONDUIT    628.46     0  01:38      0.80    0.25    1.00
  YS02001757CaochengTiaoxuchi CONDUIT   3521.98     0  01:38      4.63    1.52    1.00
  YS02001759YS02001757 CONDUIT   1468.73     0  01:38      1.87    1.04    1.00
  YS02001762YS02001759 CONDUIT    815.35     0  01:38      1.04    0.94    1.00
  YS02001765YS02001762 CONDUIT    812.58     0  01:38      1.03    0.76    1.00
  YS02001767YS02001765 CONDUIT    810.98     0  01:38      1.03    1.02    1.00
  YS02001770YS02001767 CONDUIT    810.72     0  01:38      1.03    3.21    1.00
  YS02001774YS02001770 CONDUIT    718.48     0  01:37      0.91    0.46    1.00
  YS02001779YS02001774 CONDUIT    729.30     0  01:37      0.95    0.37    1.00
  YS02001783YS02001784 CONDUIT   1161.97     0  01:37      2.31    1.60    1.00
  YS02001784YS02001785 CONDUIT   1163.19     0  01:37      2.31    2.71    1.00
  YS02001786YS02001788 CONDUIT   1163.08     0  01:37      2.49    2.24    1.00
  YS02001788YS02001790 CONDUIT   1194.03     0  01:37      2.78    0.88    1.00
  YS02001790YS02001791 CONDUIT   1290.57     0  01:38      3.45    1.40    1.00
  YS02001791YS02001793 CONDUIT   1215.06     0  01:38      6.28    0.52    1.00
  YS02001793JiankangQianchi CONDUIT   1186.02     0  01:37      2.29    0.09    1.00
  YS02001882YS02001884 CONDUIT    115.82     0  01:36      0.16    0.13    1.00
  YS02001884YS02001887 CONDUIT    176.56     0  01:36      0.22    0.24    1.00
  YS02001887YS02001890 CONDUIT    714.43     0  01:38      0.91    1.22    1.00
  YS02001890YS02001895 CONDUIT    616.22     0  01:36      0.78    0.29    1.00
  YS02001895YS02001898 CONDUIT    615.74     0  01:36      0.78    1.07    1.00
  YS02001898YS02001901 CONDUIT    613.62     0  01:36      0.78    0.40    1.00
  YS02001901YS02001904 CONDUIT    612.77     0  01:36      0.78    0.95    1.00
  YS02001904YS02001907 CONDUIT    612.31     0  01:36      0.78    0.21    1.00
  YS02001907YS02006553 CONDUIT    670.67     0  01:57      0.75    0.79    1.00
  YS02001910YS02001907 CONDUIT   1180.10     0  01:38      1.50    0.67    1.00
  YS02001915YS02001910 CONDUIT   1180.07     0  01:38      1.50    0.59    1.00
  YS02001918YS02001915 CONDUIT    871.97     0  01:36      1.12    0.48    1.00
  YS02001920YS02001918 CONDUIT    796.29     0  01:37      1.01    0.77    1.00
  YS02001923YS02001920 CONDUIT    822.24     0  01:37      1.10    0.37    1.00
  YS02001926YS02001923 CONDUIT   1111.43     0  01:37      1.58    1.59    1.00
  YS02001929YS02001926 CONDUIT    609.10     0  01:37      1.28    0.29    1.00
  YS02006553YS02006556 CONDUIT    670.07     0  01:56      0.85    0.57    1.00
  YS02006556YS02006558 CONDUIT    671.17     0  01:57      0.85    0.53    1.00
  YS02006558YS02006561 CONDUIT   1185.98     0  01:36      4.20    2.62    1.00
  YS02006561YS02001783 CONDUIT   1162.37     0  01:37      2.31    0.60    1.00
  YS02163301YS02001633 CONDUIT    773.30     0  01:36      0.98    0.73    1.00
  YS02163601YS02164001 CONDUIT   1379.89     0  01:36      1.76    1.22    1.00
  YS02164001YS02001641 CONDUIT   1377.15     0  01:36      1.75    1.88    1.00
  CC-R1                PUMP       683.00     0  00:00              1.00
  CC-R2                PUMP       683.00     0  00:00              1.00
  CC-S1                PUMP       200.00     0  00:00              1.00
  CC-S2                PUMP       200.00     0  00:00              1.00
  JK-R1                PUMP      1000.00     0  00:00              1.00
  JK-R2                PUMP      1000.00     0  00:00              1.00
  JK-S                 PUMP       300.00     0  00:00              1.00
  XR-1                 PUMP        95.00     0  00:00              1.00
  XR-2                 PUMP        95.00     0  00:00              1.00
  XR-3                 PUMP        95.00     0  00:00              1.00
  XR-4                 PUMP        95.00     0  00:00              1.00
  
  
  ***************************
  Flow Classification Summary
  ***************************
  
  -------------------------------------------------------------------------------------
                      Adjusted    ---------- Fraction of Time in Flow Class ---------- 
                       /Actual         Up    Down  Sub   Sup   Up    Down  Norm  Inlet 
  Conduit               Length    Dry  Dry   Dry   Crit  Crit  Crit  Crit  Ltd   Ctrl  
  -------------------------------------------------------------------------------------
  1                       1.00   0.00  0.00  0.00  0.00  1.00  0.00  0.00  0.34  0.00
  WS02001211WS02001212    1.00   0.00  0.00  0.00  1.00  0.00  0.00  0.00  0.00  0.00
  WS02001212WS02001213    1.00   0.00  0.00  0.00  0.62  0.00  0.38  0.00  0.00  0.00
  WS02001213WS02003059    1.00   0.00  0.00  0.00  0.99  0.00  0.00  0.00  0.00  0.00
  WS02003059WS02003060    1.00   0.00  0.00  0.00  1.00  0.00  0.00  0.00  0.00  0.00
  WS02003060WS02003069    1.00   0.00  0.00  0.00  0.99  0.01  0.00  0.00  0.00  0.00
  WS02003066WSF200        1.00   0.02  0.10  0.00  0.00  0.88  0.00  0.00  0.84  0.00
  WS02003067WS02003066    1.00   0.10  0.02  0.00  0.89  0.00  0.00  0.00  0.00  0.00
  WS02003069WS02003072    1.00   0.00  0.00  0.00  0.99  0.01  0.00  0.00  0.00  0.00
  WS02003072WS02003073    1.00   0.00  0.00  0.00  0.00  0.00  0.00  1.00  0.00  0.00
  WS02004138WS02004139    1.00   0.00  0.00  0.00  0.99  0.01  0.00  0.00  1.00  0.00
  WS02004139WS02001211    1.00   0.00  0.00  0.00  1.00  0.00  0.00  0.00  0.00  0.00
  WS02004401WS02004402    1.00   0.02  0.00  0.00  0.98  0.00  0.00  0.00  0.00  0.00
  WS02004402WS02004403    1.00   0.02  0.00  0.00  0.98  0.00  0.00  0.00  0.00  0.00
  WS02004403WS02004404    1.00   0.00  0.03  0.00  0.97  0.00  0.00  0.00  0.00  0.00
  WS02004404WS02004405    1.00   0.00  0.00  0.00  1.00  0.00  0.00  0.00  0.01  0.00
  WS02004405WS02004406    1.00   0.00  0.00  0.00  1.00  0.00  0.00  0.00  0.00  0.00
  WS02004406WS02004407    1.00   0.00  0.05  0.00  0.95  0.00  0.00  0.00  0.00  0.00
  WS02004407WS02004409    1.00   0.05  0.00  0.00  0.94  0.02  0.00  0.00  0.94  0.00
  WS02004409WS02004410    1.00   0.05  0.00  0.00  0.95  0.00  0.00  0.00  0.02  0.00
  WS02004410WS02004411    1.00   0.05  0.00  0.00  0.95  0.00  0.00  0.00  0.00  0.00
  WS02004411WS02004412    1.00   0.05  0.00  0.00  0.95  0.00  0.00  0.00  0.00  0.00
  WS02004412WS02004413    1.00   0.05  0.00  0.00  0.94  0.00  0.00  0.00  0.01  0.00
  WS02004413WS02003067    1.00   0.06  0.04  0.00  0.00  0.00  0.90  0.00  0.00  0.00
  WS02006109WS02006110    1.00   0.00  0.01  0.00  0.98  0.00  0.01  0.00  0.00  0.00
  WS02006110WS02006113    1.00   0.01  0.01  0.00  0.98  0.00  0.00  0.00  0.00  0.00
  WS02006111WS02006112    1.00   0.02  0.00  0.00  0.98  0.00  0.00  0.00  0.98  0.00
  WS02006112WS02006115    1.00   0.02  0.00  0.00  0.97  0.00  0.00  0.00  0.00  0.00
  WS02006113WS02006111    1.00   0.02  0.00  0.00  0.00  0.98  0.00  0.00  0.20  0.00
  WS02006115WS02006116    1.00   0.02  0.00  0.00  0.97  0.00  0.00  0.01  0.00  0.00
  WS02006116WS02004401    1.00   0.02  0.00  0.00  0.98  0.00  0.00  0.00  0.00  0.00
  WS02006228WS02006109    1.00   0.00  0.00  0.00  1.00  0.00  0.00  0.00  0.01  0.00
  WS02006229WS02006228    1.00   0.00  0.00  0.00  0.99  0.00  0.00  0.01  0.00  0.00
  WS02006230WS02006229    1.00   0.00  0.00  0.00  0.99  0.00  0.00  0.01  0.00  0.00
  WS02006231WS02006230    1.00   0.00  0.00  0.00  0.23  0.00  0.77  0.00  0.00  0.00
  WS02006232WS02006231    1.00   0.00  0.00  0.00  0.98  0.00  0.01  0.00  0.00  0.00
  WS02006234WS02006232    1.00   0.00  0.00  0.00  1.00  0.00  0.00  0.00  0.23  0.00
  WS02006235WS02006234    1.00   0.00  0.00  0.00  0.71  0.00  0.29  0.00  0.00  0.00
  WS02006238WS02006235    1.00   0.00  0.00  0.00  1.00  0.00  0.00  0.00  0.00  0.00
  WS02006239WS02006238    1.00   0.00  0.00  0.00  1.00  0.00  0.00  0.00  0.37  0.00
  WS02006240WS02006239    1.00   0.00  0.00  0.00  0.58  0.00  0.00  0.42  0.03  0.00
  WS02006242WS02006240    1.00   0.00  0.00  0.00  0.98  0.00  0.02  0.00  0.00  0.00
  WS02006243WS02006242    1.00   0.00  0.00  0.00  0.98  0.00  0.00  0.02  0.54  0.00
  WS02006245WS02006243    1.00   0.00  0.00  0.00  0.65  0.00  0.00  0.35  0.01  0.00
  WS02006247WS02006245    1.00   0.00  0.00  0.00  0.97  0.00  0.00  0.03  0.00  0.00
  WS02006248WS02006247    1.00   0.00  0.00  0.00  0.98  0.00  0.00  0.02  0.25  0.00
  WS02006249WS02006248    1.00   0.00  0.00  0.00  0.45  0.00  0.55  0.00  0.00  0.00
  WS02006251WS02006249    1.00   0.00  0.00  0.00  0.99  0.01  0.00  0.00  0.56  0.00
  WS02006252WS02006251    1.00   0.00  0.65  0.00  0.01  0.00  0.34  0.00  0.04  0.00
  WS02006256WS02006235    1.00   0.00  0.00  0.00  1.00  0.00  0.00  0.00  0.00  0.00
  WSF200WS02003060        1.00   0.00  0.02  0.00  0.98  0.00  0.00  0.00  0.67  0.00
  YS02001580YS02001583    1.00   0.20  0.60  0.00  0.20  0.00  0.00  0.00  0.69  0.00
  YS02001583YS02001586    1.00   0.49  0.25  0.00  0.26  0.00  0.00  0.00  0.69  0.00
  YS02001586YS02001590    1.00   0.13  0.00  0.00  0.38  0.04  0.00  0.46  0.29  0.00
  YS02001590YS02001593    1.00   0.13  0.01  0.00  0.15  0.00  0.72  0.00  0.00  0.00
  YS02001593YS02001596    1.00   0.13  0.00  0.00  0.75  0.01  0.00  0.11  0.59  0.00
  YS02001596YS02001600    1.00   0.14  0.00  0.00  0.82  0.00  0.00  0.04  0.01  0.00
  YS02001600YS02001601    1.00   0.13  0.01  0.00  0.86  0.00  0.00  0.00  0.03  0.00
  YS02001601YS02001602    1.00   0.13  0.01  0.00  0.87  0.00  0.00  0.00  0.00  0.00
  YS02001602YS02001605    1.00   0.13  0.00  0.00  0.86  0.00  0.00  0.00  0.00  0.00
  YS02001605YS02001607    1.00   0.14  0.00  0.00  0.86  0.00  0.00  0.00  0.00  0.00
  YS02001607YS02001610    1.00   0.13  0.01  0.00  0.86  0.00  0.00  0.00  0.01  0.00
  YS02001610YS02001613    1.00   0.13  0.00  0.00  0.87  0.00  0.00  0.00  0.00  0.00
  YS02001613YS02001616    1.00   0.13  0.00  0.00  0.87  0.00  0.00  0.00  0.00  0.00
  YS02001616YS02001619    1.00   0.13  0.00  0.00  0.87  0.00  0.00  0.00  0.00  0.00
  YS02001619YS02001622    1.00   0.13  0.00  0.00  0.87  0.00  0.00  0.00  0.00  0.00
  YS02001622YS02001625    1.00   0.13  0.00  0.00  0.87  0.00  0.00  0.00  0.04  0.00
  YS02001625YS02001629    1.00   0.13  0.04  0.00  0.81  0.00  0.02  0.00  0.00  0.00
  YS02001629YS02163301    1.00   0.15  0.01  0.00  0.84  0.00  0.00  0.00  0.00  0.00
  YS02001633YS02163601    1.00   0.00  0.01  0.00  0.99  0.00  0.00  0.00  0.15  0.00
  YS02001641YS02001644    1.00   0.00  0.01  0.00  0.99  0.00  0.00  0.00  0.00  0.00
  YS02001644YS02001647    1.00   0.00  0.17  0.00  0.83  0.00  0.00  0.00  0.00  0.00
  YS02001647YS02001649    1.00   0.00  0.17  0.00  0.83  0.00  0.00  0.00  0.01  0.00
  YS02001649YS02001757    1.00   0.00  0.00  0.00  1.00  0.00  0.00  0.00  0.18  0.00
  YS02001652YS02001649    1.00   0.00  0.00  0.00  0.97  0.03  0.00  0.00  0.14  0.00
  YS02001655YS02001652    1.00   0.00  0.00  0.00  0.80  0.00  0.00  0.19  0.00  0.00
  YS02001658YS02001655    1.00   0.00  0.14  0.00  0.80  0.06  0.00  0.00  0.00  0.00
  YS02001661YS02001658    1.00   0.14  0.00  0.00  0.80  0.06  0.00  0.00  0.00  0.00
  YS02001664YS02001661    1.00   0.13  0.00  0.00  0.85  0.03  0.00  0.00  0.86  0.00
  YS02001745YS02001748    1.00   0.00  0.00  0.00  0.80  0.00  0.00  0.20  0.04  0.00
  YS02001748YS02001751    1.00   0.00  0.00  0.00  0.93  0.07  0.00  0.00  0.12  0.00
  YS02001751YS02001754    1.00   0.00  0.00  0.00  0.80  0.00  0.00  0.20  0.00  0.00
  YS02001754YS02001757    1.00   0.00  0.00  0.00  1.00  0.00  0.00  0.00  0.19  0.00
  YS02001757CaochengTiaoxuchi    1.00   0.00  0.00  0.00  0.99  0.01  0.00  0.00  0.19  0.00
  YS02001759YS02001757    1.00   0.00  0.00  0.00  1.00  0.00  0.00  0.00  0.06  0.00
  YS02001762YS02001759    1.00   0.00  0.00  0.00  1.00  0.00  0.00  0.00  0.03  0.00
  YS02001765YS02001762    1.00   0.00  0.00  0.00  1.00  0.00  0.00  0.00  0.14  0.00
  YS02001767YS02001765    1.00   0.00  0.00  0.00  1.00  0.00  0.00  0.00  0.00  0.00
  YS02001770YS02001767    1.00   0.00  0.00  0.00  1.00  0.00  0.00  0.00  0.00  0.00
  YS02001774YS02001770    1.00   0.00  0.13  0.00  0.87  0.00  0.00  0.00  0.03  0.00
  YS02001779YS02001774    1.00   0.00  0.00  0.00  1.00  0.00  0.00  0.00  0.17  0.00
  YS02001783YS02001784    1.00   0.00  0.17  0.00  0.83  0.00  0.00  0.00  0.00  0.00
  YS02001784YS02001785    1.00   0.00  0.00  0.00  1.00  0.00  0.00  0.00  0.16  0.00
  YS02001786YS02001788    1.00   0.00  0.00  0.00  0.98  0.02  0.00  0.00  0.00  0.00
  YS02001788YS02001790    1.00   0.00  0.00  0.00  0.98  0.02  0.00  0.00  0.18  0.00
  YS02001790YS02001791    1.00   0.00  0.00  0.00  0.81  0.19  0.00  0.00  0.01  0.00
  YS02001791YS02001793    1.00   0.00  0.00  0.00  0.79  0.20  0.00  0.00  0.00  0.00
  YS02001793JiankangQianchi    1.00   0.00  0.00  0.00  0.93  0.07  0.00  0.00  0.18  0.00
  YS02001882YS02001884    1.00   0.15  0.01  0.00  0.84  0.00  0.00  0.00  0.00  0.00
  YS02001884YS02001887    1.00   0.06  0.05  0.00  0.89  0.00  0.00  0.00  0.00  0.00
  YS02001887YS02001890    1.00   0.00  0.00  0.00  0.97  0.00  0.03  0.00  0.00  0.00
  YS02001890YS02001895    1.00   0.00  0.16  0.00  0.84  0.00  0.00  0.00  0.00  0.00
  YS02001895YS02001898    1.00   0.16  0.00  0.00  0.82  0.00  0.01  0.00  0.00  0.00
  YS02001898YS02001901    1.00   0.16  0.00  0.00  0.84  0.00  0.00  0.00  0.01  0.00
  YS02001901YS02001904    1.00   0.16  0.00  0.00  0.84  0.00  0.00  0.00  0.00  0.00
  YS02001904YS02001907    1.00   0.00  0.16  0.00  0.84  0.00  0.00  0.00  0.00  0.00
  YS02001907YS02006553    1.00   0.00  0.02  0.00  0.98  0.00  0.00  0.00  0.00  0.00
  YS02001910YS02001907    1.00   0.00  0.00  0.00  0.97  0.00  0.00  0.03  0.12  0.00
  YS02001915YS02001910    1.00   0.00  0.00  0.00  0.97  0.03  0.00  0.00  0.15  0.00
  YS02001918YS02001915    1.00   0.00  0.01  0.00  0.98  0.02  0.00  0.00  0.77  0.00
  YS02001920YS02001918    1.00   0.00  0.01  0.00  0.99  0.00  0.00  0.00  0.00  0.00
  YS02001923YS02001920    1.00   0.00  0.00  0.00  1.00  0.00  0.00  0.00  0.93  0.00
  YS02001926YS02001923    1.00   0.00  0.07  0.00  0.06  0.00  0.87  0.00  0.00  0.00
  YS02001929YS02001926    1.00   0.00  0.13  0.00  0.87  0.00  0.00  0.00  0.82  0.00
  YS02006553YS02006556    1.00   0.01  0.00  0.00  0.99  0.00  0.00  0.00  0.03  0.00
  YS02006556YS02006558    1.00   0.00  0.00  0.00  1.00  0.00  0.00  0.00  0.00  0.00
  YS02006558YS02006561    1.00   0.17  0.00  0.00  0.07  0.76  0.00  0.00  0.19  0.00
  YS02006561YS02001783    1.00   0.17  0.00  0.00  0.80  0.02  0.00  0.00  0.73  0.00
  YS02163301YS02001633    1.00   0.00  0.15  0.00  0.85  0.00  0.00  0.00  0.00  0.00
  YS02163601YS02164001    1.00   0.00  0.08  0.00  0.92  0.00  0.00  0.00  0.00  0.00
  YS02164001YS02001641    1.00   0.01  0.07  0.00  0.92  0.00  0.00  0.00  0.05  0.00
  
  
  *************************
  Conduit Surcharge Summary
  *************************
  
  ----------------------------------------------------------------------------
                                                           Hours        Hours 
                         --------- Hours Full --------   Above Full   Capacity
  Conduit                Both Ends  Upstream  Dnstream   Normal Flow   Limited
  ----------------------------------------------------------------------------
  WS02003072WS02003073        0.01      0.01      0.01      3.84         0.01
  WS02004404WS02004405        0.01      0.01      0.01      3.38         0.01
  WS02004405WS02004406        0.01      0.01      0.01      0.03         0.01
  WS02006109WS02006110        0.06      0.06      1.74      0.08         0.01
  WS02006110WS02006113        0.01      0.01      1.72      0.01         0.01
  WS02006111WS02006112        0.01      0.01      1.79      0.01         0.01
  WS02006112WS02006115        0.01      0.01      0.04      0.01         0.01
  WS02006228WS02006109        1.69      1.74      1.69      2.31         1.69
  WS02006229WS02006228        1.68      1.70      1.68      1.95         1.68
  WS02006230WS02006229        1.79      1.82      1.79      3.94         1.79
  WS02006231WS02006230        0.06      0.06      0.08      3.53         0.01
  WS02006232WS02006231        0.08      0.08      1.75      0.08         0.01
  WS02006234WS02006232        1.66      1.66      1.75      0.08         0.08
  WS02006235WS02006234        0.11      0.11      1.70      3.20         0.01
  WS02006238WS02006235        1.71      1.71      1.76      0.01         0.01
  WS02006239WS02006238        1.72      1.75      1.72      2.06         1.70
  WS02006240WS02006239        1.70      1.72      1.70      2.11         1.68
  WS02006242WS02006240        1.71      1.71      1.80      2.37         0.01
  WS02006243WS02006242        1.73      1.73      1.78      0.01         0.01
  WS02006245WS02006243        1.72      1.73      1.72      2.23         1.66
  WS02006247WS02006245        1.72      1.75      1.72      2.76         1.72
  WS02006248WS02006247        1.72      1.72      1.74      0.01         0.01
  WS02006249WS02006248        1.72      1.72      1.73      2.71         0.01
  WS02006251WS02006249        1.73      1.74      1.73      2.51         1.72
  WS02006252WS02006251        2.59      2.59      2.60      2.60         0.01
  WS02006256WS02006235        3.39      3.39      5.04      0.11         0.01
  YS02001580YS02001583        0.53      0.53      0.59      0.01         0.01
  YS02001583YS02001586        0.54      0.54      0.80      0.01         0.01
  YS02001586YS02001590        0.81      0.81      0.90      0.01         0.01
  YS02001590YS02001593        0.91      0.91      0.93      0.88         0.01
  YS02001593YS02001596        0.92      0.92      1.13      0.01         0.01
  YS02001596YS02001600        1.30      1.30      1.67      0.01         0.01
  YS02001600YS02001601        2.39      2.39      6.52      0.01         0.01
  YS02001601YS02001602        6.35      6.35      6.52      0.99         0.01
  YS02001602YS02001605        6.34      6.34      6.35      2.07         0.19
  YS02001605YS02001607        6.32      6.34      6.47      1.29         1.23
  YS02001607YS02001610        1.45      1.45      1.60      0.01         0.01
  YS02001610YS02001613        1.46      1.46      1.60      0.01         0.01
  YS02001613YS02001616        1.26      1.26      1.46      0.01         0.01
  YS02001616YS02001619        1.20      1.20      1.26      0.01         0.01
  YS02001619YS02001622        1.20      1.20      1.27      0.61         0.56
  YS02001622YS02001625        1.27      1.27      5.57      0.01         0.01
  YS02001625YS02001629        1.16      1.16      5.57      0.01         0.01
  YS02001629YS02163301        6.02      6.02      6.22      0.01         0.04
  YS02001633YS02163601        6.42      6.42      6.42      0.04         0.10
  YS02001641YS02001644        6.41      6.42      6.41      1.41         1.35
  YS02001644YS02001647        5.54      5.54      6.41      0.03         0.01
  YS02001647YS02001649        5.54      5.54      6.39      0.01         0.01
  YS02001649YS02001757        6.39      6.39      6.39      0.07         0.10
  YS02001652YS02001649        5.79      5.79      6.39      0.01         0.01
  YS02001655YS02001652        1.22      1.22      3.94      0.01         0.01
  YS02001658YS02001655        0.14      0.14      1.22      0.01         0.01
  YS02001661YS02001658        0.01      0.01      0.13      0.01         0.01
  YS02001664YS02001661        0.01      0.01      0.02      0.01         0.01
  YS02001745YS02001748        0.01      0.01      0.02      0.01         0.01
  YS02001748YS02001751        0.09      0.09      0.82      0.01         0.01
  YS02001751YS02001754        0.82      0.82      3.29      0.01         0.01
  YS02001754YS02001757        5.63      5.63      6.39      0.01         0.01
  YS02001757CaochengTiaoxuchi        6.32      6.39      6.32      0.28         0.20
  YS02001759YS02001757        6.39      6.39      6.39      0.01         0.02
  YS02001762YS02001759        6.38      6.38      6.39      0.01         0.03
  YS02001765YS02001762        6.38      6.38      6.38      0.01         0.01
  YS02001767YS02001765        6.38      6.38      6.38      0.01         0.06
  YS02001770YS02001767        6.38      6.38      6.38      0.44         0.54
  YS02001774YS02001770        6.08      6.08      6.38      0.01         0.01
  YS02001779YS02001774        2.77      2.77      6.38      0.01         0.01
  YS02001783YS02001784        0.63      0.63      0.64      0.57         0.55
  YS02001784YS02001785        0.62      0.64      0.62      0.77         0.62
  YS02001786YS02001788        0.57      0.62      0.57      0.70         0.57
  YS02001788YS02001790        0.57      0.57      6.34      0.01         0.01
  YS02001790YS02001791        6.34      6.34      6.34      0.37         0.31
  YS02001791YS02001793        6.34      6.34      6.35      0.01         0.01
  YS02001793JiankangQianchi        6.35      6.35      6.44      0.01         0.01
  YS02001882YS02001884        0.47      0.47      0.48      0.01         0.01
  YS02001884YS02001887        0.50      0.50      0.51      0.01         0.01
  YS02001887YS02001890        0.53      0.53      0.54      0.08         0.01
  YS02001890YS02001895        0.46      0.46      0.55      0.01         0.01
  YS02001895YS02001898        0.46      0.46      0.46      0.01         0.01
  YS02001898YS02001901        0.46      0.46      0.50      0.01         0.01
  YS02001901YS02001904        0.50      0.50      0.50      0.01         0.01
  YS02001904YS02001907        0.50      0.50      0.68      0.01         0.01
  YS02001907YS02006553        0.79      0.79      0.85      0.01         0.01
  YS02001910YS02001907        0.55      0.55      0.67      0.01         0.01
  YS02001915YS02001910        0.47      0.47      0.55      0.01         0.01
  YS02001918YS02001915        0.38      0.38      0.47      0.01         0.01
  YS02001920YS02001918        0.38      0.38      0.39      0.01         0.01
  YS02001923YS02001920        0.33      0.33      0.39      0.01         0.01
  YS02001926YS02001923        0.01      0.02      0.02      0.01         0.01
  YS02001929YS02001926        0.01      0.01      0.02      0.01         0.01
  YS02006553YS02006556        0.61      0.61      0.68      0.01         0.01
  YS02006556YS02006558        0.64      0.64      0.70      0.01         0.01
  YS02006558YS02006561        0.50      0.60      0.50      0.74         0.50
  YS02006561YS02001783        0.42      0.42      0.63      0.01         0.01
  YS02163301YS02001633        6.22      6.22      6.42      0.01         0.01
  YS02163601YS02164001        6.42      6.42      6.42      0.03         0.01
  YS02164001YS02001641        6.42      6.42      6.42      0.60         0.56
  
  
  ***************
  Pumping Summary
  ***************
  
  ---------------------------------------------------------------------------------------------------------
                                                  Min       Avg       Max     Total     Power    % Time Off
                        Percent   Number of      Flow      Flow      Flow    Volume     Usage    Pump Curve
  Pump                 Utilized   Start-Ups       LPS       LPS       LPS  10^6 ltr     Kw-hr    Low   High
  ---------------------------------------------------------------------------------------------------------
  CC-R1                    1.06           1      0.00    683.00    683.00     0.208      3.51    0.0  100.0
  CC-R2                    1.06           1      0.00    683.00    683.00     0.208      3.51    0.0  100.0
  CC-S1                   35.20          11      0.00    200.00    200.00     2.027      7.55    0.0   74.1
  CC-S2                   32.44           9      0.00    200.00    200.00     1.868      7.10    0.0   71.9
  JK-R1                    0.97           2      0.00    347.46   1000.00     0.078      0.47    0.0    0.0
  JK-R2                    0.97           2      0.00    347.46   1000.00     0.078      0.47    0.0    0.0
  JK-S                     2.02           3      0.00    210.19    300.00     0.114      1.10    0.0    0.0
  XR-1                   100.00           1      0.00     95.00     95.00     2.736     68.18    0.0    0.0
  XR-2                   100.00           1      0.00     95.00     95.00     2.736     68.18    0.0    0.0
  XR-3                   100.00           1      0.00     95.00     95.00     2.736     68.18    0.0    0.0
  XR-4                   100.00           1      0.00     95.00     95.00     2.736     68.18    0.0    0.0
  

  Analysis begun on:  Wed Nov  5 16:30:00 2025
  Analysis ended on:  Wed Nov  5 16:30:03 2025
  Total elapsed time: 00:00:03