
  EPA STORM WATER MANAGEMENT MODEL - VERSION 5.2 (Build 5.2.4)
  PYSWMM TOOLKIT API - VERSION v1.0 (2023-11-27)
  ------------------------------------------------------------

  WARNING 04: minimum elevation drop used for Conduit WS02004404WS02004405
  WARNING 03: negative offset ignored for Link YS02001904YS02001907
  
  ****************
  Analysis Options
  ****************
  Flow Units ............... LPS
  Process Models:
    Rainfall/Runoff ........ YES
    RDII ................... NO
    Snowmelt ............... NO
    Groundwater ............ NO
    Flow Routing ........... YES
    Ponding Allowed ........ NO
    Water Quality .......... NO
  Infiltration Method ...... HORTON
  Flow Routing Method ...... DYNWAVE
  Surcharge Method ......... EXTRAN
  Starting Date ............ 08/28/2015 08:00:00
  Ending Date .............. 08/28/2015 16:00:00
  Antecedent Dry Days ...... 8.0
  Report Time Step ......... 00:01:00
  Wet Time Step ............ 00:01:00
  Dry Time Step ............ 00:01:00
  Routing Time Step ........ 30.00 sec
  Variable Time Step ....... YES
  Maximum Trials ........... 8
  Number of Threads ........ 4
  Head Tolerance ........... 0.001500 m
  
  
  **************************        Volume         Depth
  Runoff Quantity Continuity     hectare-m            mm
  **************************     ---------       -------
  Initial LID Storage ......         0.049         1.488
  Total Precipitation ......         1.726        52.037
  Evaporation Loss .........         0.000         0.000
  Infiltration Loss ........         0.075         2.266
  Surface Runoff ...........         1.262        38.037
  Final Storage ............         0.439        13.247
  Continuity Error (%) .....        -0.047
  
  
  **************************        Volume        Volume
  Flow Routing Continuity        hectare-m      10^6 ltr
  **************************     ---------     ---------
  Dry Weather Inflow .......         0.602         6.020
  Wet Weather Inflow .......         1.262        12.617
  Groundwater Inflow .......         0.000         0.000
  RDII Inflow ..............         0.000         0.000
  External Inflow ..........         0.105         1.045
  External Outflow .........         1.519        15.190
  Flooding Loss ............         0.419         4.185
  Evaporation Loss .........         0.000         0.000
  Exfiltration Loss ........         0.000         0.000
  Initial Stored Volume ....         0.303         3.031
  Final Stored Volume ......         0.790         7.899
  Continuity Error (%) .....       -20.080
  
  
  *************************
  Highest Continuity Errors
  *************************
  Node YS02001774 (23.02%)
  Node YS02001583 (-8.43%)
  Node WS02006256 (-6.05%)
  Node YS02001884 (4.95%)
  Node YS02001754 (4.49%)
  
  
  ***************************
  Time-Step Critical Elements
  ***************************
  Link WS02001212WS02001213 (35.82%)
  Link WS02006235WS02006234 (24.26%)
  Link WS02006238WS02006235 (14.76%)
  Link WS02003066WSF200 (5.67%)
  Link YS02006556YS02006558 (5.47%)
  
  
  ********************************
  Highest Flow Instability Indexes
  ********************************
  Link WS02006113WS02006111 (41)
  Link WS02006238WS02006235 (38)
  Link WS02006111WS02006112 (33)
  Link WS02006256WS02006235 (31)
  Link WS02006243WS02006242 (28)
  
  
  *********************************
  Most Frequent Nonconverging Nodes
  *********************************
  Node CC-1 (17.54%)
  Node CC-2 (17.54%)
  Node JK-1 (17.54%)
  Node JK-2 (17.54%)
  Node WSC (17.54%)
  
  
  *************************
  Routing Time Step Summary
  *************************
  Minimum Time Step           :     0.02 sec
  Average Time Step           :     3.85 sec
  Maximum Time Step           :     6.46 sec
  % of Time in Steady State   :     0.00
  Average Iterations per Step :     3.59
  % of Steps Not Converging   :    17.54
  Time Step Frequencies       :
     30.000 - 13.228 sec      :     0.00 %
     13.228 -  5.833 sec      :    34.35 %
      5.833 -  2.572 sec      :    40.89 %
      2.572 -  1.134 sec      :    17.93 %
      1.134 -  0.500 sec      :     6.82 %
  
  
  ***************************
  Subcatchment Runoff Summary
  ***************************
  
  ------------------------------------------------------------------------------------------------------------------------------
                            Total      Total      Total      Total     Imperv       Perv      Total       Total     Peak  Runoff
                           Precip      Runon       Evap      Infil     Runoff     Runoff     Runoff      Runoff   Runoff   Coeff
  Subcatchment                 mm         mm         mm         mm         mm         mm         mm    10^6 ltr      LPS
  ------------------------------------------------------------------------------------------------------------------------------
  sub60                     52.04       0.00       0.00       1.36      34.42       3.46      37.88        0.50   338.03   0.728
  sub61                     52.04       0.00       0.00       2.09      34.38       5.15      39.53        0.73   491.90   0.760
  sub62                     52.04       0.00       0.00       0.92      36.65       2.35      39.00        1.07   674.15   0.750
  sub63                     52.04       0.00       0.00       3.81      29.45       8.55      38.00        0.86   550.75   0.730
  sub64                     52.04       0.00       0.00       1.83      33.53       4.25      37.78        0.91   542.97   0.726
  sub65                     52.04       0.00       0.00       1.68      36.19       3.88      40.07        1.10   632.00   0.770
  sub66                     52.04       0.00       0.00       4.42      28.47       7.55      36.02        1.68   801.33   0.692
  sub67                     52.04       0.00       0.00       0.92      37.58       2.44      40.02        0.74   529.15   0.769
  sub68                     52.04       0.00       0.00       1.60      33.19       3.95      37.14        1.02   671.88   0.714
  sub69                     52.04       0.00       0.00       1.45      34.97       4.74      39.71        1.47   819.63   0.763
  sub70                     52.04       0.00       0.00       4.83      28.01       9.65      37.66        1.09   463.97   0.724
  sub71                     52.04       0.00       0.00       0.85      33.29       2.12      35.42        0.93   551.50   0.681
  sub72                     52.04       0.00       0.00       0.81      35.96       1.97      37.93        0.52   282.33   0.729
  

  ***********************
  LID Performance Summary
  ***********************

  --------------------------------------------------------------------------------------------------------------------
                                         Total      Evap     Infil   Surface    Drain    Initial     Final  Continuity
                                        Inflow      Loss      Loss   Outflow   Outflow   Storage   Storage       Error
  Subcatchment      LID Control             mm        mm        mm        mm        mm        mm        mm           %
  --------------------------------------------------------------------------------------------------------------------
  sub60             GreenRoof            52.04      0.00      0.00      0.00      0.00      7.05     59.16       -0.13
  sub61             GreenRoof            52.04      0.00      0.00      0.00      0.00      7.05     59.16       -0.13
  sub62             GreenRoof            52.04      0.00      0.00      0.00      0.00      7.05     59.16       -0.13
  sub63             GreenRoof            52.04      0.00      0.00      0.00      0.00      7.05     59.16       -0.13
  sub64             GreenRoof            52.04      0.00      0.00      0.00      0.00      7.05     59.16       -0.13
  sub65             GreenRoof            52.04      0.00      0.00      0.00      0.00      7.05     59.16       -0.13
  sub66             GreenRoof            52.04      0.00      0.00      0.00      0.00      7.05     59.16       -0.13
  sub67             GreenRoof            52.04      0.00      0.00      0.00      0.00      7.05     59.16       -0.13
  sub68             GreenRoof            52.04      0.00      0.00      0.00      0.00      7.05     59.16       -0.13
  sub69             GreenRoof            52.04      0.00      0.00      0.00      0.00      7.05     59.16       -0.13
  sub70             GreenRoof            52.04      0.00      0.00      0.00      0.00      7.05     59.16       -0.13
  sub71             GreenRoof            52.04      0.00      0.00      0.00      0.00      7.05     59.16       -0.13
  sub72             GreenRoof            52.04      0.00      0.00      0.00      0.00      7.05     59.16       -0.13
  
  ******************
  Node Depth Summary
  ******************
  
  ---------------------------------------------------------------------------------
                                 Average  Maximum  Maximum  Time of Max    Reported
                                   Depth    Depth      HGL   Occurrence   Max Depth
  Node                 Type       Meters   Meters   Meters  days hr:min      Meters
  ---------------------------------------------------------------------------------
  WS02001211           JUNCTION     0.76     0.78     5.62     0  03:28        0.78
  WS02001212           JUNCTION     0.46     0.49     5.55     0  02:39        0.49
  WS02001213           JUNCTION     0.68     0.73     5.49     0  02:50        0.73
  WS02003059           JUNCTION     0.73     0.78     5.47     0  02:32        0.78
  WS02003060           JUNCTION     0.38     0.47     5.41     0  02:31        0.47
  WS02003066           JUNCTION     0.16     0.27     5.82     0  02:31        0.27
  WS02003067           JUNCTION     0.43     0.65     5.97     0  02:31        0.65
  WS02003069           JUNCTION     0.43     0.54     5.12     0  02:32        0.54
  WS02003072           JUNCTION     0.49     0.60     4.97     0  02:33        0.60
  WS02003073           JUNCTION     0.29     0.37     4.43     0  02:33        0.37
  WS02004138           JUNCTION     0.19     0.20     7.45     0  00:00        0.19
  WS02004139           JUNCTION     0.71     0.73     5.64     0  02:35        0.73
  WS02004401           JUNCTION     0.52     0.75     6.75     0  02:42        0.75
  WS02004402           JUNCTION     0.55     0.78     6.74     0  02:42        0.78
  WS02004403           JUNCTION     0.57     0.80     6.73     0  02:46        0.80
  WS02004404           JUNCTION     0.65     0.88     6.73     0  02:43        0.88
  WS02004405           JUNCTION     0.65     0.88     6.73     0  02:43        0.87
  WS02004406           JUNCTION     0.66     0.88     6.71     0  02:43        0.88
  WS02004407           JUNCTION     0.14     0.26     6.57     0  02:43        0.26
  WS02004409           JUNCTION     0.31     0.58     6.35     0  02:47        0.58
  WS02004410           JUNCTION     0.34     0.59     6.31     0  02:29        0.59
  WS02004411           JUNCTION     0.36     0.61     6.29     0  02:30        0.61
  WS02004412           JUNCTION     0.38     0.62     6.26     0  02:30        0.62
  WS02004413           JUNCTION     0.54     0.79     6.26     0  02:30        0.79
  WS02006109           JUNCTION     0.57     0.84     7.46     0  02:06        0.84
  WS02006110           JUNCTION     0.58     0.82     7.41     0  02:29        0.82
  WS02006111           JUNCTION     0.14     0.25     6.96     0  02:41        0.25
  WS02006112           JUNCTION     0.67     0.93     6.82     0  02:41        0.93
  WS02006113           JUNCTION     0.22     0.39     7.29     0  03:26        0.39
  WS02006115           JUNCTION     0.40     0.65     6.78     0  02:42        0.65
  WS02006116           JUNCTION     0.49     0.73     6.77     0  02:42        0.73
  WS02006228           JUNCTION     0.56     0.85     7.50     0  02:11        0.85
  WS02006229           JUNCTION     0.53     0.83     7.52     0  02:06        0.83
  WS02006230           JUNCTION     0.52     0.86     7.60     0  02:52        0.86
  WS02006231           JUNCTION     0.31     0.60     7.72     0  02:52        0.60
  WS02006232           JUNCTION     0.43     0.75     7.79     0  02:52        0.75
  WS02006234           JUNCTION     0.35     0.71     7.87     0  02:52        0.71
  WS02006235           JUNCTION     0.38     0.77     7.93     0  02:23        0.76
  WS02006238           JUNCTION     0.41     0.81     7.95     0  02:14        0.80
  WS02006239           JUNCTION     0.39     0.81     8.02     0  02:03        0.81
  WS02006240           JUNCTION     0.38     0.79     8.08     0  02:04        0.79
  WS02006242           JUNCTION     0.44     0.91     8.17     0  02:37        0.90
  WS02006243           JUNCTION     0.39     0.84     8.26     0  02:10        0.84
  WS02006245           JUNCTION     0.39     0.86     8.34     0  02:08        0.85
  WS02006247           JUNCTION     0.41     0.89     8.39     0  02:56        0.89
  WS02006248           JUNCTION     0.39     0.86     8.45     0  02:11        0.85
  WS02006249           JUNCTION     0.41     0.93     8.53     0  02:21        0.93
  WS02006251           JUNCTION     0.41     0.91     8.58     0  02:57        0.91
  WS02006252           JUNCTION     0.27     1.50     9.74     0  00:00        0.65
  WS02006256           JUNCTION     0.62     2.35     9.28     0  00:00        2.35
  WSF200               JUNCTION     0.13     0.25     5.48     0  02:31        0.25
  YS02001580           JUNCTION     0.08     1.05     9.59     0  01:58        0.77
  YS02001583           JUNCTION     0.11     1.08     9.57     0  01:58        0.82
  YS02001586           JUNCTION     0.19     1.13     9.30     0  01:57        1.13
  YS02001590           JUNCTION     0.28     1.40     9.26     0  01:58        1.38
  YS02001593           JUNCTION     0.22     1.36     9.22     0  01:58        1.28
  YS02001596           JUNCTION     0.42     1.70     9.12     0  01:58        1.65
  YS02001600           JUNCTION     0.64     1.87     9.00     0  01:58        1.87
  YS02001601           JUNCTION     0.89     2.06     8.90     0  01:57        2.06
  YS02001602           JUNCTION     0.80     1.87     8.77     0  01:57        1.87
  YS02001605           JUNCTION     0.77     1.78     8.68     0  02:21        1.78
  YS02001607           JUNCTION     0.77     1.65     8.50     0  02:16        1.65
  YS02001610           JUNCTION     0.81     1.68     8.48     0  01:58        1.68
  YS02001613           JUNCTION     0.77     1.66     8.50     0  01:58        1.65
  YS02001616           JUNCTION     0.70     1.60     8.51     0  02:02        1.60
  YS02001619           JUNCTION     0.69     1.59     8.51     0  02:02        1.59
  YS02001622           JUNCTION     0.69     1.56     8.46     0  01:59        1.55
  YS02001625           JUNCTION     0.94     1.78     8.38     0  01:58        1.78
  YS02001629           JUNCTION     0.96     1.85     8.40     0  01:58        1.85
  YS02001633           JUNCTION     1.04     2.00     8.46     0  02:02        1.97
  YS02001641           JUNCTION     1.02     1.95     8.39     0  02:02        1.94
  YS02001644           JUNCTION     1.02     1.92     8.35     0  02:02        1.92
  YS02001647           JUNCTION     0.83     1.68     8.29     0  02:02        1.65
  YS02001649           JUNCTION     0.98     1.81     8.20     0  02:02        1.77
  YS02001652           JUNCTION     0.81     1.68     8.27     0  02:02        1.60
  YS02001655           JUNCTION     0.62     1.61     8.46     0  02:02        1.38
  YS02001658           JUNCTION     0.41     1.50     8.64     0  02:02        1.12
  YS02001661           JUNCTION     0.24     0.88     8.28     0  02:03        0.88
  YS02001664           JUNCTION     0.06     0.28     8.21     0  02:01        0.28
  YS02001745           JUNCTION     0.13     0.59     8.10     0  02:03        0.59
  YS02001748           JUNCTION     0.44     1.05     8.13     0  02:02        0.96
  YS02001751           JUNCTION     0.58     1.36     8.24     0  02:01        1.15
  YS02001754           JUNCTION     0.78     1.48     8.09     0  02:01        1.39
  YS02001757           JUNCTION     1.06     1.79     8.05     0  02:03        1.72
  YS02001759           JUNCTION     0.98     1.76     8.12     0  02:03        1.68
  YS02001762           JUNCTION     0.95     1.74     8.14     0  02:03        1.69
  YS02001765           JUNCTION     0.91     1.72     8.17     0  02:03        1.68
  YS02001767           JUNCTION     0.89     1.71     8.20     0  02:03        1.69
  YS02001770           JUNCTION     0.89     1.80     8.30     0  02:01        1.79
  YS02001774           JUNCTION     0.95     1.90     8.32     0  02:01        1.90
  YS02001779           JUNCTION     0.73     1.68     8.37     0  02:00        1.68
  YS02001783           JUNCTION     0.47     1.62     7.76     0  01:59        1.48
  YS02001784           JUNCTION     0.52     1.56     7.63     0  01:59        1.42
  YS02001786           JUNCTION     0.52     1.40     7.43     0  01:59        1.27
  YS02001788           JUNCTION     0.53     1.29     7.27     0  01:58        1.22
  YS02001790           JUNCTION     0.76     1.68     7.32     0  01:57        1.30
  YS02001791           JUNCTION     0.85     1.42     6.89     0  01:57        1.27
  YS02001793           JUNCTION     1.30     2.02     6.85     0  01:56        1.80
  YS02001882           JUNCTION     0.30     1.69     8.41     0  02:00        1.63
  YS02001884           JUNCTION     0.38     1.78     8.40     0  02:00        1.73
  YS02001887           JUNCTION     0.46     1.83     8.37     0  02:00        1.81
  YS02001890           JUNCTION     0.49     1.81     8.32     0  02:00        1.81
  YS02001895           JUNCTION     0.27     1.59     8.34     0  02:06        1.59
  YS02001898           JUNCTION     0.27     1.58     8.32     0  02:06        1.58
  YS02001901           JUNCTION     0.38     1.71     8.32     0  02:06        1.71
  YS02001904           JUNCTION     0.36     1.65     8.28     0  02:00        1.64
  YS02001907           JUNCTION     0.67     1.96     8.25     0  02:00        1.96
  YS02001910           JUNCTION     0.48     2.00     8.50     0  02:00        1.93
  YS02001915           JUNCTION     0.30     1.94     8.66     0  02:00        1.87
  YS02001918           JUNCTION     0.15     1.81     8.88     0  02:00        1.81
  YS02001920           JUNCTION     0.23     2.14     9.15     0  02:00        2.14
  YS02001923           JUNCTION     0.11     2.03     9.29     0  02:00        2.03
  YS02001926           JUNCTION     0.15     1.90     9.35     0  02:00        1.90
  YS02001929           JUNCTION     0.08     1.78     9.47     0  02:00        1.66
  YS02006553           JUNCTION     0.68     1.98     8.26     0  02:00        1.97
  YS02006556           JUNCTION     0.65     1.95     8.26     0  02:00        1.95
  YS02006558           JUNCTION     0.69     1.99     8.26     0  02:00        1.98
  YS02006561           JUNCTION     0.16     1.21     7.87     0  01:59        1.09
  YS02163301           JUNCTION     0.98     1.91     8.43     0  01:59        1.90
  YS02163601           JUNCTION     1.07     2.04     8.43     0  02:02        2.01
  YS02164001           JUNCTION     1.01     1.95     8.41     0  02:02        1.93
  CC-1                 OUTFALL      0.00     0.00     0.00     0  00:00        0.00
  CC-2                 OUTFALL      0.00     0.00     0.00     0  00:00        0.00
  JK-1                 OUTFALL      0.00     0.00     0.00     0  00:00        0.00
  JK-2                 OUTFALL      0.00     0.00     0.00     0  00:00        0.00
  WSC                  OUTFALL      0.29     0.37     1.04     0  02:34        0.37
  CC-storage           STORAGE      1.64     2.19     7.69     0  03:03        2.19
  JK-storage           STORAGE      4.39     5.80     6.60     0  01:57        5.80
  XR-storage           STORAGE      0.31     5.00     3.00     0  00:00        4.91
  
  
  *******************
  Node Inflow Summary
  *******************
  
  -------------------------------------------------------------------------------------------------
                                  Maximum  Maximum                  Lateral       Total        Flow
                                  Lateral    Total  Time of Max      Inflow      Inflow     Balance
                                   Inflow   Inflow   Occurrence      Volume      Volume       Error
  Node                 Type           LPS      LPS  days hr:min    10^6 ltr    10^6 ltr     Percent
  -------------------------------------------------------------------------------------------------
  WS02001211           JUNCTION      7.35   389.13     0  03:41       0.212        11.1       0.348
  WS02001212           JUNCTION      0.00   390.86     0  03:41           0        11.1       0.207
  WS02001213           JUNCTION      0.00   392.61     0  03:40           0        11.1       0.238
  WS02003059           JUNCTION      0.00   395.67     0  03:40           0          11       0.328
  WS02003060           JUNCTION     16.53   816.06     0  02:31       0.476        14.7       0.147
  WS02003066           JUNCTION      0.00   411.88     0  02:31           0        3.19       0.038
  WS02003067           JUNCTION      0.00   411.88     0  02:31           0         3.2       0.125
  WS02003069           JUNCTION      0.32   816.36     0  02:32     0.00922        14.6       0.155
  WS02003072           JUNCTION      0.00   816.35     0  02:32           0        14.6       0.203
  WS02003073           JUNCTION      1.82   818.16     0  02:33      0.0524        14.6       0.217
  WS02004138           JUNCTION      0.00   380.00     0  00:00           0        10.9       0.059
  WS02004139           JUNCTION      0.32   395.52     0  00:00     0.00924        10.9       0.407
  WS02004401           JUNCTION      0.00   412.39     0  02:42           0        3.29       0.301
  WS02004402           JUNCTION      0.00   412.14     0  02:42           0        3.28       0.307
  WS02004403           JUNCTION      0.00   412.21     0  02:42           0        3.27       0.301
  WS02004404           JUNCTION      0.16   412.27     0  02:43     0.00467        3.27       0.251
  WS02004405           JUNCTION      0.04   412.25     0  02:43      0.0011        3.26       0.375
  WS02004406           JUNCTION      0.00   412.31     0  02:43           0        3.25       0.628
  WS02004407           JUNCTION      0.00   412.10     0  02:43           0        3.23       0.028
  WS02004409           JUNCTION      0.00   412.04     0  02:43           0        3.23       0.066
  WS02004410           JUNCTION      0.00   411.97     0  02:44           0        3.23       0.120
  WS02004411           JUNCTION      0.00   411.96     0  02:47           0        3.22       0.158
  WS02004412           JUNCTION      0.00   411.93     0  02:48           0        3.22       0.217
  WS02004413           JUNCTION      0.00   411.93     0  02:45           0        3.21       0.391
  WS02006109           JUNCTION      1.23   412.53     0  02:03      0.0354        3.34       0.236
  WS02006110           JUNCTION      0.00   411.90     0  02:03           0        3.33       0.186
  WS02006111           JUNCTION      0.00   423.64     0  01:54           0        3.32       0.027
  WS02006112           JUNCTION      0.00   414.13     0  02:41           0        3.32       0.525
  WS02006113           JUNCTION      0.00   412.11     0  02:41           0        3.32       0.040
  WS02006115           JUNCTION      0.00   412.82     0  02:41           0        3.31       0.188
  WS02006116           JUNCTION      0.00   412.40     0  02:42           0         3.3       0.135
  WS02006228           JUNCTION      0.00   413.20     0  02:13           0        3.31       0.086
  WS02006229           JUNCTION      0.00   410.90     0  02:03           0        3.31       0.136
  WS02006230           JUNCTION     10.28   410.62     0  02:52       0.296        3.32       0.180
  WS02006231           JUNCTION      0.00   400.38     0  03:01           0        3.02      -0.105
  WS02006232           JUNCTION      0.00   400.36     0  02:52           0        3.03       0.273
  WS02006234           JUNCTION      0.00   401.91     0  02:11           0        3.02      -0.182
  WS02006235           JUNCTION      0.00   402.46     0  02:02           0        3.04       0.246
  WS02006238           JUNCTION      0.00   402.09     0  02:25           0        3.01      -0.212
  WS02006239           JUNCTION      0.00   401.49     0  02:02           0           3      -0.158
  WS02006240           JUNCTION      0.00   400.99     0  02:51           0           3      -0.044
  WS02006242           JUNCTION      0.00   401.70     0  02:19           0           3       0.006
  WS02006243           JUNCTION      0.00   401.44     0  02:16           0           3       0.028
  WS02006245           JUNCTION      0.00   403.37     0  03:10           0        3.01       0.328
  WS02006247           JUNCTION      0.00   401.13     0  02:04           0        3.01       0.014
  WS02006248           JUNCTION      0.00   401.11     0  02:34           0        3.01       0.095
  WS02006249           JUNCTION      0.00   458.97     0  00:00           0        3.02       0.226
  WS02006251           JUNCTION      0.08   401.16     0  02:24     0.00222        3.02      -0.001
  WS02006252           JUNCTION      0.00   400.00     0  00:00           0        3.01      -0.029
  WS02006256           JUNCTION      0.00   300.00     0  00:00           0      0.0242      -5.707
  WSF200               JUNCTION      0.00   411.88     0  02:31           0        3.19       0.016
  YS02001580           JUNCTION      0.00   123.87     0  01:57           0     0.00436       3.086
  YS02001583           JUNCTION      0.00   198.62     0  01:58           0      0.0148      -7.774
  YS02001586           JUNCTION    463.97   463.99     0  02:04        1.09         1.1       0.130
  YS02001590           JUNCTION      0.00   318.01     0  02:13           0           1       0.020
  YS02001593           JUNCTION      0.00   318.09     0  02:11           0           1       0.064
  YS02001596           JUNCTION      0.00   318.15     0  02:02           0           1       0.185
  YS02001600           JUNCTION      0.00   318.08     0  02:13           0           1       0.692
  YS02001601           JUNCTION    819.63  1137.02     0  02:03        1.47        2.47       0.369
  YS02001602           JUNCTION      0.00   529.12     0  01:57           0        1.82       0.517
  YS02001605           JUNCTION      0.00   528.44     0  01:57           0        1.74       0.806
  YS02001607           JUNCTION      0.00   527.86     0  01:57           0        1.73       1.152
  YS02001610           JUNCTION      0.00   530.32     0  01:57           0        1.71       1.244
  YS02001613           JUNCTION      0.00   533.85     0  01:57           0        1.51       1.467
  YS02001616           JUNCTION      0.00   536.64     0  01:57           0         1.5       1.285
  YS02001619           JUNCTION    801.33   943.09     0  01:59        1.68        3.16       0.603
  YS02001622           JUNCTION      0.00   940.63     0  01:59           0        3.14       0.832
  YS02001625           JUNCTION      0.00   940.20     0  01:59           0        3.12       1.444
  YS02001629           JUNCTION      0.00   939.76     0  01:59           0        2.76       0.746
  YS02001633           JUNCTION    632.20  1437.23     0  01:59        1.11        3.82       0.850
  YS02001641           JUNCTION      0.00  1430.06     0  01:59           0        3.75       0.578
  YS02001644           JUNCTION    543.00  1864.91     0  01:59       0.909        4.63       0.573
  YS02001647           JUNCTION      0.00  1864.35     0  01:59           0         4.6       0.613
  YS02001649           JUNCTION      0.00  2142.36     0  01:59           0        5.39       0.691
  YS02001652           JUNCTION      0.00   602.09     0  02:03           0       0.852       2.797
  YS02001655           JUNCTION      0.15   603.47     0  02:03     0.00443       0.877       1.956
  YS02001658           JUNCTION      0.00   705.94     0  02:02           0       0.927       1.204
  YS02001661           JUNCTION      0.00   557.25     0  02:01           0       0.915       0.590
  YS02001664           JUNCTION    550.75   550.75     0  02:02       0.863       0.863      -0.033
  YS02001745           JUNCTION    338.03   338.03     0  02:02       0.498       0.515       0.754
  YS02001748           JUNCTION      0.04   523.74     0  02:02      0.0013       0.547       1.885
  YS02001751           JUNCTION      0.01   428.63     0  02:05    0.000317       0.538       3.799
  YS02001754           JUNCTION      0.26   382.23     0  02:04     0.00749       0.509       4.702
  YS02001757           JUNCTION      0.00  3314.41     0  02:02           0        7.45       1.302
  YS02001759           JUNCTION    491.94  1247.80     0  02:01       0.727        1.67       1.384
  YS02001762           JUNCTION      0.00   750.09     0  02:01           0       0.966       2.236
  YS02001765           JUNCTION      0.00   738.62     0  02:01           0        0.99       2.539
  YS02001767           JUNCTION      0.54   728.21     0  02:01      0.0154        1.02       3.599
  YS02001770           JUNCTION    674.30   697.65     0  02:01        1.07        1.11       2.906
  YS02001774           JUNCTION      0.00   431.33     0  02:00           0       0.109      29.898
  YS02001779           JUNCTION      0.01   441.25     0  02:00    0.000144      0.0476      41.831
  YS02001783           JUNCTION      0.00   972.78     0  02:02           0        2.86       0.243
  YS02001784           JUNCTION      1.06   974.08     0  02:02      0.0305        2.88       0.371
  YS02001786           JUNCTION      0.06   974.05     0  02:02     0.00162        2.87       0.474
  YS02001788           JUNCTION      0.07   973.97     0  02:02     0.00204        2.86       0.472
  YS02001790           JUNCTION      0.15   974.02     0  02:02     0.00446        2.85       0.593
  YS02001791           JUNCTION      0.00   974.54     0  02:02           0        2.83       0.520
  YS02001793           JUNCTION      0.00   974.87     0  02:02           0        2.82       0.512
  YS02001882           JUNCTION      0.00    88.03     0  01:59           0      0.0125       6.042
  YS02001884           JUNCTION      0.00   121.37     0  01:59           0      0.0485       5.210
  YS02001887           JUNCTION    529.60   529.75     0  02:01       0.757       0.791       0.568
  YS02001890           JUNCTION      0.00   530.62     0  02:01           0        0.75       0.715
  YS02001895           JUNCTION      0.00   501.87     0  02:02           0       0.739       0.194
  YS02001898           JUNCTION      0.00   503.69     0  02:02           0       0.737       0.056
  YS02001901           JUNCTION      0.00   504.71     0  01:59           0        0.74       0.434
  YS02001904           JUNCTION      0.00   505.52     0  01:59           0       0.744       0.399
  YS02001907           JUNCTION      0.00  1493.96     0  02:01           0        2.27       0.800
  YS02001910           JUNCTION      0.00  1002.96     0  02:01           0        1.54       0.481
  YS02001915           JUNCTION    551.52  1001.90     0  02:01       0.927        1.59       0.085
  YS02001918           JUNCTION      0.00   692.64     0  01:59           0       0.689      -0.065
  YS02001920           JUNCTION      2.87   602.64     0  02:00      0.0827       0.667       0.070
  YS02001923           JUNCTION      0.04   824.60     0  02:00     0.00109       0.567      -0.232
  YS02001926           JUNCTION      0.05  1005.98     0  02:00      0.0015       0.544      -0.288
  YS02001929           JUNCTION    282.33   781.25     0  02:00       0.522       0.528       0.016
  YS02006553           JUNCTION      0.00   672.74     0  02:13           0        1.86       0.658
  YS02006556           JUNCTION      0.00   672.28     0  02:13           0        1.86       0.437
  YS02006558           JUNCTION    672.76   973.72     0  02:02        1.05        2.88       0.130
  YS02006561           JUNCTION      0.00   972.51     0  02:02           0        2.86      -0.011
  YS02163301           JUNCTION      0.00   937.43     0  01:59           0        2.74       0.894
  YS02163601           JUNCTION      0.11  1435.63     0  01:59     0.00317        3.79       0.805
  YS02164001           JUNCTION      0.00  1433.53     0  01:59           0        3.76       0.557
  CC-1                 OUTFALL       0.00   683.00     0  00:00           0       0.208       0.000
  CC-2                 OUTFALL       0.00   683.00     0  00:00           0       0.208       0.000
  JK-1                 OUTFALL       0.00  1000.00     0  00:00           0      0.0791       0.000
  JK-2                 OUTFALL       0.00  1000.00     0  00:00           0      0.0791       0.000
  WSC                  OUTFALL       0.00   818.15     0  02:34           0        14.6       0.000
  CC-storage           STORAGE       0.00  3318.06     0  02:02           0        9.55       0.417
  JK-storage           STORAGE       0.00   975.18     0  02:02           0        2.95       0.537
  XR-storage           STORAGE     200.00   200.00     0  00:00        5.76        6.36     -41.886
  
  
  **********************
  Node Surcharge Summary
  **********************
  
  Surcharging occurs when water rises above the top of the highest conduit.
  ---------------------------------------------------------------------
                                               Max. Height   Min. Depth
                                   Hours       Above Crown    Below Rim
  Node                 Type      Surcharged         Meters       Meters
  ---------------------------------------------------------------------
  WS02006109           JUNCTION        1.76          0.017        1.803
  WS02006228           JUNCTION        1.75          0.020        2.180
  WS02006229           JUNCTION        1.77          0.030        2.420
  WS02006232           JUNCTION        1.83          0.050        1.430
  WS02006235           JUNCTION        1.77          0.057        1.233
  WS02006238           JUNCTION        1.80          0.088        1.342
  WS02006239           JUNCTION        1.78          0.069        1.221
  WS02006240           JUNCTION        1.78          0.080        1.310
  WS02006242           JUNCTION        1.86          0.175        0.645
  WS02006243           JUNCTION        1.80          0.133        0.637
  WS02006245           JUNCTION        1.80          0.147        0.703
  WS02006247           JUNCTION        1.82          0.181        0.579
  WS02006248           JUNCTION        1.79          0.138        0.242
  WS02006249           JUNCTION        1.81          0.230        0.160
  WS02006252           JUNCTION        2.09          1.100        0.000
  WS02006256           JUNCTION        3.01          2.050        0.000
  YS02001580           JUNCTION        0.36          0.450        0.000
  YS02001583           JUNCTION        0.37          0.439        0.061
  YS02001586           JUNCTION        0.53          0.510        0.000
  YS02001590           JUNCTION        0.61          0.750        0.000
  YS02001593           JUNCTION        0.61          0.742        0.098
  YS02001596           JUNCTION        0.75          0.973        0.097
  YS02001600           JUNCTION        1.19          1.190        0.000
  YS02001601           JUNCTION        6.26          1.440        0.000
  YS02001602           JUNCTION        6.21          1.270        0.000
  YS02001605           JUNCTION        6.19          1.180        0.000
  YS02001607           JUNCTION        0.75          0.652        0.028
  YS02001610           JUNCTION        0.90          0.680        0.000
  YS02001613           JUNCTION        0.75          0.658        0.042
  YS02001616           JUNCTION        0.65          0.598        0.012
  YS02001619           JUNCTION        0.62          0.585        0.025
  YS02001622           JUNCTION        0.64          0.558        0.062
  YS02001625           JUNCTION        6.06          0.780        0.000
  YS02001629           JUNCTION        0.55          0.470        0.000
  YS02001633           JUNCTION        6.07          0.984        0.076
  YS02001641           JUNCTION        6.06          0.953        0.147
  YS02001644           JUNCTION        6.04          0.920        0.000
  YS02001647           JUNCTION        5.97          0.683        0.217
  YS02001649           JUNCTION        6.01          0.814        0.236
  YS02001652           JUNCTION        5.81          0.649        0.481
  YS02001655           JUNCTION        0.18          0.607        0.593
  YS02001658           JUNCTION        0.03          0.498        0.802
  YS02001751           JUNCTION        0.07          0.365        0.835
  YS02001754           JUNCTION        4.65          0.428        0.722
  YS02001757           JUNCTION        6.00          0.789        0.421
  YS02001759           JUNCTION        5.99          0.760        0.450
  YS02001762           JUNCTION        5.99          0.743        0.407
  YS02001765           JUNCTION        5.99          0.717        0.383
  YS02001767           JUNCTION        5.99          0.709        0.321
  YS02001770           JUNCTION        5.99          0.772        0.148
  YS02001774           JUNCTION        5.99          0.901        0.149
  YS02001779           JUNCTION        0.59          0.680        0.000
  YS02001783           JUNCTION        0.49          0.815        0.785
  YS02001784           JUNCTION        0.50          0.765        0.725
  YS02001786           JUNCTION        0.50          0.603        0.827
  YS02001788           JUNCTION        0.49          0.494        0.986
  YS02001790           JUNCTION        6.05          0.875        0.282
  YS02001791           JUNCTION        6.05          0.623        1.297
  YS02001793           JUNCTION        6.06          1.018        1.582
  YS02001882           JUNCTION        0.34          0.691        0.139
  YS02001884           JUNCTION        0.35          0.719        0.151
  YS02001887           JUNCTION        0.38          0.784        0.166
  YS02001890           JUNCTION        0.39          0.760        0.000
  YS02001895           JUNCTION        0.33          0.589        0.161
  YS02001898           JUNCTION        0.33          0.551        0.189
  YS02001901           JUNCTION        0.37          0.708        0.162
  YS02001904           JUNCTION        0.36          0.651        0.199
  YS02001907           JUNCTION        0.55          0.950        0.000
  YS02001910           JUNCTION        0.41          0.997        0.103
  YS02001915           JUNCTION        0.34          0.938        0.062
  YS02001918           JUNCTION        0.26          0.810        0.000
  YS02001920           JUNCTION        0.27          1.140        0.000
  YS02001923           JUNCTION        0.01          0.820        0.000
  YS02001926           JUNCTION        0.01          0.900        0.000
  YS02001929           JUNCTION        0.01          0.780        0.000
  YS02006553           JUNCTION        0.57          0.976        0.214
  YS02006556           JUNCTION        0.48          0.911        0.439
  YS02006558           JUNCTION        0.47          0.892        0.508
  YS02006561           JUNCTION        0.29          0.407        0.743
  YS02163301           JUNCTION        6.07          0.914        0.116
  YS02163601           JUNCTION        6.08          1.036        0.044
  YS02164001           JUNCTION        6.06          0.955        0.145
  
  
  *********************
  Node Flooding Summary
  *********************
  
  Flooding refers to all water that overflows a node, whether it ponds or not.
  --------------------------------------------------------------------------
                                                             Total   Maximum
                                 Maximum   Time of Max       Flood    Ponded
                        Hours       Rate    Occurrence      Volume     Depth
  Node                 Flooded       LPS   days hr:min    10^6 ltr    Meters
  --------------------------------------------------------------------------
  WS02006252              0.01    245.63      0  00:00       0.000     0.000
  WS02006256              0.02    293.19      0  00:00       0.005     0.000
  YS02001580              0.01     94.35      0  01:58       0.000     0.000
  YS02001586              0.27    146.62      0  02:04       0.083     0.000
  YS02001590              0.01      5.06      0  01:58       0.000     0.000
  YS02001600              0.01      5.63      0  01:58       0.000     0.000
  YS02001601              0.46    739.21      0  02:03       0.635     0.000
  YS02001602              0.38     61.96      0  02:05       0.069     0.000
  YS02001605              0.01      0.19      0  02:21       0.000     0.000
  YS02001610              0.29    299.52      0  02:04       0.186     0.000
  YS02001625              0.26    801.74      0  02:03       0.319     0.000
  YS02001629              0.04     98.60      0  01:58       0.003     0.000
  YS02001644              0.01     30.36      0  02:02       0.001     0.000
  YS02001779              0.01    353.12      0  02:00       0.003     0.000
  YS02001890              0.04     64.96      0  02:00       0.006     0.000
  YS02001907              0.20   1192.42      0  02:01       0.401     0.000
  YS02001918              0.01    282.32      0  02:01       0.004     0.000
  YS02001920              0.01    260.77      0  02:00       0.000     0.000
  YS02001923              0.01    354.58      0  02:00       0.002     0.000
  YS02001926              0.01     68.84      0  02:00       0.000     0.000
  YS02001929              0.01     67.31      0  02:00       0.000     0.000
  JK-storage              6.04    974.86      0  02:02       2.465     0.000
  
  
  **********************
  Storage Volume Summary
  **********************
  
  ------------------------------------------------------------------------------------------------
                         Average    Avg   Evap  Exfil     Maximum    Max    Time of Max    Maximum
                          Volume   Pcnt   Pcnt   Pcnt      Volume   Pcnt     Occurrence    Outflow
  Storage Unit           1000 m³   Full   Loss   Loss     1000 m³   Full    days hr:min        LPS
  ------------------------------------------------------------------------------------------------
  CC-storage               4.569   71.3    0.0    0.0       6.116   95.4       0  03:03    1783.53
  JK-storage               0.221   75.8    0.0    0.0       0.291  100.0       0  01:57    2300.00
  XR-storage               0.037    2.6    0.0    0.0       0.600   41.7       0  00:00     380.00
  
  
  ***********************
  Outfall Loading Summary
  ***********************
  
  -----------------------------------------------------------
                         Flow       Avg       Max       Total
                         Freq      Flow      Flow      Volume
  Outfall Node           Pcnt       LPS       LPS    10^6 ltr
  -----------------------------------------------------------
  CC-1                   1.36    683.00    683.00       0.208
  CC-2                   1.36    683.00    683.00       0.208
  JK-1                   1.27    347.46   1000.00       0.079
  JK-2                   1.27    347.46   1000.00       0.079
  WSC                   99.92    566.40    818.15      14.615
  -----------------------------------------------------------
  System                21.04   2627.33   3366.35      15.190
  
  
  ********************
  Link Flow Summary
  ********************
  
  -----------------------------------------------------------------------------
                                 Maximum  Time of Max   Maximum    Max/    Max/
                                  |Flow|   Occurrence   |Veloc|    Full    Full
  Link                 Type          LPS  days hr:min     m/sec    Flow   Depth
  -----------------------------------------------------------------------------
  1                    CONDUIT    818.15     0  02:34      3.15    0.28    0.37
  WS02001211WS02001212 CONDUIT    390.86     0  03:41      0.78    0.30    0.64
  WS02001212WS02001213 CONDUIT    392.61     0  03:40      1.32    0.61    0.45
  WS02001213WS02003059 CONDUIT    395.67     0  03:40      0.85    0.65    0.75
  WS02003059WS02003060 CONDUIT    399.95     0  03:40      0.95    0.26    0.63
  WS02003060WS02003069 CONDUIT    816.04     0  02:32      1.80    0.32    0.42
  WS02003066WSF200     CONDUIT    411.88     0  02:31      2.69    0.07    0.19
  WS02003067WS02003066 CONDUIT    411.88     0  02:31      1.04    0.13    0.38
  WS02003069WS02003072 CONDUIT    816.35     0  02:32      1.55    0.39    0.47
  WS02003072WS02003073 CONDUIT    816.34     0  02:33      1.64    1.76    0.45
  WS02004138WS02004139 CONDUIT    395.20     0  00:00      3.65    0.08    0.43
  WS02004139WS02001211 CONDUIT    381.78     0  03:41      0.91    0.48    0.59
  WS02004401WS02004402 CONDUIT    412.14     0  02:42      0.99    0.49    0.77
  WS02004402WS02004403 CONDUIT    412.21     0  02:42      0.99    0.59    0.79
  WS02004403WS02004404 CONDUIT    412.10     0  02:43      0.93    0.30    0.84
  WS02004404WS02004405 CONDUIT    412.21     0  02:43      1.10    4.04    0.88
  WS02004405WS02004406 CONDUIT    412.31     0  02:43      1.03    0.81    0.88
  WS02004406WS02004407 CONDUIT    412.10     0  02:43      0.89    0.18    0.57
  WS02004407WS02004409 CONDUIT    412.04     0  02:43      1.42    0.15    0.42
  WS02004409WS02004410 CONDUIT    411.97     0  02:44      0.92    0.53    0.58
  WS02004410WS02004411 CONDUIT    411.96     0  02:47      0.86    0.56    0.60
  WS02004411WS02004412 CONDUIT    411.93     0  02:48      0.81    0.59    0.61
  WS02004412WS02004413 CONDUIT    411.93     0  02:45      0.70    0.28    0.70
  WS02004413WS02003067 CONDUIT    411.88     0  02:31      0.96    0.18    0.53
  WS02006109WS02006110 CONDUIT    411.90     0  02:03      0.84    0.79    0.94
  WS02006110WS02006113 CONDUIT    412.11     0  02:41      1.03    0.37    0.75
  WS02006111WS02006112 CONDUIT    414.13     0  02:41      1.83    0.20    0.65
  WS02006112WS02006115 CONDUIT    412.82     0  02:41      0.71    0.24    0.78
  WS02006113WS02006111 CONDUIT    423.64     0  01:54      2.25    0.51    0.40
  WS02006115WS02006116 CONDUIT    412.40     0  02:42      0.98    0.53    0.66
  WS02006116WS02004401 CONDUIT    412.39     0  02:42      1.00    0.57    0.74
  WS02006228WS02006109 CONDUIT    411.30     0  02:03      1.06    1.80    1.00
  WS02006229WS02006228 CONDUIT    413.20     0  02:13      1.13    1.37    1.00
  WS02006230WS02006229 CONDUIT    410.90     0  02:03      1.22    9.14    1.00
  WS02006231WS02006230 CONDUIT    400.35     0  02:52      1.37    6.07    0.77
  WS02006232WS02006231 CONDUIT    400.38     0  03:01      1.08    0.84    0.92
  WS02006234WS02006232 CONDUIT    400.36     0  02:52      1.40    0.81    1.00
  WS02006235WS02006234 CONDUIT    401.91     0  02:11      1.30    4.24    0.99
  WS02006238WS02006235 CONDUIT    402.46     0  02:02      1.48    0.90    1.00
  WS02006239WS02006238 CONDUIT    402.09     0  02:25      1.21    1.29    1.00
  WS02006240WS02006239 CONDUIT    401.49     0  02:02      1.30    1.26    1.00
  WS02006242WS02006240 CONDUIT    400.99     0  02:51      1.17    1.59    1.00
  WS02006243WS02006242 CONDUIT    401.70     0  02:19      1.43    0.86    1.00
  WS02006245WS02006243 CONDUIT    401.44     0  02:16      1.45    1.19    1.00
  WS02006247WS02006245 CONDUIT    403.37     0  03:10      1.43    3.20    1.00
  WS02006248WS02006247 CONDUIT    401.13     0  02:04      1.45    0.87    1.00
  WS02006249WS02006248 CONDUIT    401.11     0  02:34      1.38    2.20    1.00
  WS02006251WS02006249 CONDUIT    458.97     0  00:00      1.99    1.32    1.00
  WS02006252WS02006251 CONDUIT    401.08     0  02:24     24.55    1.47    1.00
  WS02006256WS02006235 CONDUIT    288.91     0  00:00      4.23    3.06    1.00
  WSF200WS02003060     CONDUIT    411.88     0  02:31      1.43    0.09    0.30
  YS02001580YS02001583 CONDUIT    123.87     0  01:57      0.76    0.48    1.00
  YS02001583YS02001586 CONDUIT    183.07     0  01:58      0.78    0.28    1.00
  YS02001586YS02001590 CONDUIT    318.01     0  02:13      1.27    0.56    1.00
  YS02001590YS02001593 CONDUIT    318.09     0  02:11      1.13    2.00    1.00
  YS02001593YS02001596 CONDUIT    318.15     0  02:02      1.62    0.50    1.00
  YS02001596YS02001600 CONDUIT    318.08     0  02:13      1.12    0.62    1.00
  YS02001600YS02001601 CONDUIT    317.98     0  02:11      1.12    0.55    1.00
  YS02001601YS02001602 CONDUIT    529.12     0  01:57      1.87    1.91    1.00
  YS02001602YS02001605 CONDUIT    528.44     0  01:57      1.87   11.18    1.00
  YS02001605YS02001607 CONDUIT    527.86     0  01:57      1.87    2.89    1.00
  YS02001607YS02001610 CONDUIT    530.32     0  01:57      0.68    0.50    1.00
  YS02001610YS02001613 CONDUIT    533.85     0  01:57      0.68    0.62    1.00
  YS02001613YS02001616 CONDUIT    536.64     0  01:57      0.69    0.46    1.00
  YS02001616YS02001619 CONDUIT    517.12     0  01:57      0.66    0.90    1.00
  YS02001619YS02001622 CONDUIT    940.63     0  01:59      1.20    1.39    1.00
  YS02001622YS02001625 CONDUIT    940.20     0  01:59      1.20    0.50    1.00
  YS02001625YS02001629 CONDUIT    939.76     0  01:59      1.20    0.45    1.00
  YS02001629YS02163301 CONDUIT    937.43     0  01:59      1.19    1.15    1.00
  YS02001633YS02163601 CONDUIT   1435.52     0  01:59      1.83    1.51    1.00
  YS02001641YS02001644 CONDUIT   1428.70     0  01:59      1.82    4.62    1.00
  YS02001644YS02001647 CONDUIT   1864.35     0  01:59      2.39    1.10    1.00
  YS02001647YS02001649 CONDUIT   1869.63     0  01:59      2.40    0.99    1.00
  YS02001649YS02001757 CONDUIT   2150.26     0  01:59      2.74    1.30    1.00
  YS02001652YS02001649 CONDUIT    602.08     0  02:03      0.80    0.30    1.00
  YS02001655YS02001652 CONDUIT    602.09     0  02:03      1.32    0.29    1.00
  YS02001658YS02001655 CONDUIT    603.31     0  02:03      1.96    0.26    1.00
  YS02001661YS02001658 CONDUIT    705.94     0  02:02      2.39    0.28    0.90
  YS02001664YS02001661 CONDUIT    557.25     0  02:01      2.37    0.17    0.58
  YS02001745YS02001748 CONDUIT    523.70     0  02:02      2.24    0.20    0.69
  YS02001748YS02001751 CONDUIT    428.62     0  02:05      1.74    0.22    1.00
  YS02001751YS02001754 CONDUIT    381.97     0  02:04      1.44    0.18    1.00
  YS02001754YS02001757 CONDUIT    381.97     0  02:04      0.49    0.15    1.00
  YS02001757CaochengTiaoxuchi CONDUIT   3318.06     0  02:02      4.23    1.44    1.00
  YS02001759YS02001757 CONDUIT   1250.97     0  02:01      1.59    0.89    1.00
  YS02001762YS02001759 CONDUIT    759.33     0  02:01      0.97    0.87    1.00
  YS02001765YS02001762 CONDUIT    750.09     0  02:01      0.96    0.70    1.00
  YS02001767YS02001765 CONDUIT    738.62     0  02:01      0.94    0.93    1.00
  YS02001770YS02001767 CONDUIT    727.68     0  02:01      0.93    2.88    1.00
  YS02001774YS02001770 CONDUIT    431.33     0  02:00      0.55    0.28    1.00
  YS02001779YS02001774 CONDUIT    441.24     0  02:00      0.56    0.22    1.00
  YS02001783YS02001784 CONDUIT    973.02     0  02:02      1.94    1.34    1.00
  YS02001784YS02001785 CONDUIT    973.99     0  02:02      1.94    2.27    1.00
  YS02001786YS02001788 CONDUIT    973.90     0  02:02      2.16    1.88    1.00
  YS02001788YS02001790 CONDUIT    973.87     0  02:02      2.22    0.72    1.00
  YS02001790YS02001791 CONDUIT    974.54     0  02:02      2.58    1.06    1.00
  YS02001791YS02001793 CONDUIT    974.87     0  02:02      4.89    0.42    1.00
  YS02001793JiankangQianchi CONDUIT    975.18     0  02:02      1.54    0.08    1.00
  YS02001882YS02001884 CONDUIT     88.03     0  01:59      0.12    0.10    1.00
  YS02001884YS02001887 CONDUIT    121.37     0  01:59      0.15    0.16    1.00
  YS02001887YS02001890 CONDUIT    530.62     0  02:01      0.68    0.91    1.00
  YS02001890YS02001895 CONDUIT    501.87     0  02:02      0.64    0.23    1.00
  YS02001895YS02001898 CONDUIT    503.69     0  02:02      0.64    0.87    1.00
  YS02001898YS02001901 CONDUIT    504.71     0  01:59      0.64    0.33    1.00
  YS02001901YS02001904 CONDUIT    505.52     0  01:59      0.64    0.78    1.00
  YS02001904YS02001907 CONDUIT    508.23     0  01:59      0.65    0.18    1.00
  YS02001907YS02006553 CONDUIT    672.74     0  02:13      0.75    0.79    1.00
  YS02001910YS02001907 CONDUIT   1004.48     0  02:01      1.28    0.57    1.00
  YS02001915YS02001910 CONDUIT   1002.96     0  02:01      1.28    0.50    1.00
  YS02001918YS02001915 CONDUIT    692.64     0  01:59      0.90    0.38    1.00
  YS02001920YS02001918 CONDUIT    599.77     0  02:00      0.76    0.58    1.00
  YS02001923YS02001920 CONDUIT    615.47     0  02:00      0.84    0.28    1.00
  YS02001926YS02001923 CONDUIT    778.38     0  02:00      1.26    1.11    1.00
  YS02001929YS02001926 CONDUIT    529.41     0  02:00      1.18    0.25    1.00
  YS02006553YS02006556 CONDUIT    672.28     0  02:13      0.86    0.58    1.00
  YS02006556YS02006558 CONDUIT    674.25     0  02:13      0.86    0.53    1.00
  YS02006558YS02006561 CONDUIT    972.51     0  02:02      3.44    2.15    1.00
  YS02006561YS02001783 CONDUIT    972.78     0  02:02      2.13    0.50    1.00
  YS02163301YS02001633 CONDUIT    936.37     0  01:59      1.19    0.88    1.00
  YS02163601YS02164001 CONDUIT   1433.53     0  01:59      1.83    1.27    1.00
  YS02164001YS02001641 CONDUIT   1430.06     0  01:59      1.82    1.95    1.00
  CC-R1                PUMP       683.00     0  00:00              1.00
  CC-R2                PUMP       683.00     0  00:00              1.00
  CC-S1                PUMP       200.00     0  00:00              1.00
  CC-S2                PUMP       200.00     0  00:00              1.00
  JK-R1                PUMP      1000.00     0  00:00              1.00
  JK-R2                PUMP      1000.00     0  00:00              1.00
  JK-S                 PUMP       300.00     0  00:00              1.00
  XR-1                 PUMP        95.00     0  00:00              1.00
  XR-2                 PUMP        95.00     0  00:00              1.00
  XR-3                 PUMP        95.00     0  00:00              1.00
  XR-4                 PUMP        95.00     0  00:00              1.00
  
  
  ***************************
  Flow Classification Summary
  ***************************
  
  -------------------------------------------------------------------------------------
                      Adjusted    ---------- Fraction of Time in Flow Class ---------- 
                       /Actual         Up    Down  Sub   Sup   Up    Down  Norm  Inlet 
  Conduit               Length    Dry  Dry   Dry   Crit  Crit  Crit  Crit  Ltd   Ctrl  
  -------------------------------------------------------------------------------------
  1                       1.00   0.00  0.00  0.00  0.00  1.00  0.00  0.00  0.18  0.00
  WS02001211WS02001212    1.00   0.00  0.00  0.00  1.00  0.00  0.00  0.00  0.00  0.00
  WS02001212WS02001213    1.00   0.00  0.00  0.00  0.36  0.00  0.64  0.00  0.00  0.00
  WS02001213WS02003059    1.00   0.00  0.00  0.00  0.99  0.00  0.00  0.00  0.00  0.00
  WS02003059WS02003060    1.00   0.00  0.00  0.00  1.00  0.00  0.00  0.00  0.00  0.00
  WS02003060WS02003069    1.00   0.00  0.00  0.00  0.99  0.01  0.00  0.00  0.00  0.00
  WS02003066WSF200        1.00   0.02  0.10  0.00  0.00  0.88  0.00  0.00  0.87  0.00
  WS02003067WS02003066    1.00   0.10  0.02  0.00  0.89  0.00  0.00  0.00  0.00  0.00
  WS02003069WS02003072    1.00   0.00  0.00  0.00  0.99  0.01  0.00  0.00  0.00  0.00
  WS02003072WS02003073    1.00   0.00  0.00  0.00  0.00  0.00  0.00  1.00  0.00  0.00
  WS02004138WS02004139    1.00   0.00  0.00  0.00  0.99  0.01  0.00  0.00  1.00  0.00
  WS02004139WS02001211    1.00   0.00  0.00  0.00  1.00  0.00  0.00  0.00  0.00  0.00
  WS02004401WS02004402    1.00   0.02  0.00  0.00  0.98  0.00  0.00  0.00  0.00  0.00
  WS02004402WS02004403    1.00   0.02  0.00  0.00  0.98  0.00  0.00  0.00  0.00  0.00
  WS02004403WS02004404    1.00   0.00  0.03  0.00  0.97  0.00  0.00  0.00  0.00  0.00
  WS02004404WS02004405    1.00   0.00  0.00  0.00  1.00  0.00  0.00  0.00  0.00  0.00
  WS02004405WS02004406    1.00   0.00  0.00  0.00  1.00  0.00  0.00  0.00  0.00  0.00
  WS02004406WS02004407    1.00   0.00  0.05  0.00  0.95  0.00  0.00  0.00  0.00  0.00
  WS02004407WS02004409    1.00   0.05  0.00  0.00  0.94  0.01  0.00  0.00  0.94  0.00
  WS02004409WS02004410    1.00   0.05  0.00  0.00  0.95  0.00  0.00  0.00  0.02  0.00
  WS02004410WS02004411    1.00   0.05  0.00  0.00  0.95  0.00  0.00  0.00  0.00  0.00
  WS02004411WS02004412    1.00   0.05  0.00  0.00  0.95  0.00  0.00  0.00  0.00  0.00
  WS02004412WS02004413    1.00   0.05  0.00  0.00  0.94  0.00  0.00  0.00  0.01  0.00
  WS02004413WS02003067    1.00   0.06  0.04  0.00  0.00  0.00  0.90  0.00  0.00  0.00
  WS02006109WS02006110    1.00   0.00  0.01  0.00  0.98  0.00  0.01  0.00  0.00  0.00
  WS02006110WS02006113    1.00   0.01  0.01  0.00  0.98  0.00  0.00  0.00  0.00  0.00
  WS02006111WS02006112    1.00   0.02  0.00  0.00  0.98  0.00  0.00  0.00  0.98  0.00
  WS02006112WS02006115    1.00   0.02  0.00  0.00  0.97  0.00  0.00  0.00  0.00  0.00
  WS02006113WS02006111    1.00   0.02  0.00  0.00  0.00  0.98  0.00  0.00  0.11  0.00
  WS02006115WS02006116    1.00   0.02  0.00  0.00  0.97  0.00  0.00  0.01  0.00  0.00
  WS02006116WS02004401    1.00   0.02  0.00  0.00  0.98  0.00  0.00  0.00  0.00  0.00
  WS02006228WS02006109    1.00   0.00  0.00  0.00  1.00  0.00  0.00  0.00  0.00  0.00
  WS02006229WS02006228    1.00   0.00  0.00  0.00  0.99  0.00  0.00  0.01  0.00  0.00
  WS02006230WS02006229    1.00   0.00  0.00  0.00  0.99  0.00  0.00  0.01  0.00  0.00
  WS02006231WS02006230    1.00   0.00  0.00  0.00  0.24  0.00  0.76  0.00  0.00  0.00
  WS02006232WS02006231    1.00   0.00  0.00  0.00  0.99  0.00  0.01  0.00  0.00  0.00
  WS02006234WS02006232    1.00   0.00  0.00  0.00  1.00  0.00  0.00  0.00  0.53  0.00
  WS02006235WS02006234    1.00   0.00  0.00  0.00  0.43  0.00  0.57  0.00  0.00  0.00
  WS02006238WS02006235    1.00   0.00  0.00  0.00  1.00  0.00  0.00  0.00  0.00  0.00
  WS02006239WS02006238    1.00   0.00  0.00  0.00  1.00  0.00  0.00  0.00  0.62  0.00
  WS02006240WS02006239    1.00   0.00  0.00  0.00  0.34  0.00  0.00  0.66  0.01  0.00
  WS02006242WS02006240    1.00   0.00  0.00  0.00  0.99  0.00  0.01  0.00  0.00  0.00
  WS02006243WS02006242    1.00   0.00  0.00  0.00  0.99  0.00  0.00  0.01  0.71  0.00
  WS02006245WS02006243    1.00   0.00  0.00  0.00  0.39  0.00  0.00  0.60  0.00  0.00
  WS02006247WS02006245    1.00   0.00  0.00  0.00  0.99  0.00  0.00  0.01  0.00  0.00
  WS02006248WS02006247    1.00   0.00  0.00  0.00  0.99  0.00  0.00  0.01  0.12  0.00
  WS02006249WS02006248    1.00   0.00  0.00  0.00  0.29  0.00  0.71  0.00  0.00  0.00
  WS02006251WS02006249    1.00   0.00  0.00  0.00  1.00  0.00  0.00  0.00  0.72  0.00
  WS02006252WS02006251    1.00   0.00  0.74  0.00  0.00  0.00  0.26  0.00  0.00  0.00
  WS02006256WS02006235    1.00   0.00  0.00  0.00  1.00  0.00  0.00  0.00  0.00  0.00
  WSF200WS02003060        1.00   0.00  0.02  0.00  0.98  0.00  0.00  0.00  0.66  0.00
  YS02001580YS02001583    1.00   0.24  0.59  0.00  0.17  0.00  0.00  0.00  0.68  0.00
  YS02001583YS02001586    1.00   0.49  0.29  0.00  0.22  0.00  0.00  0.00  0.68  0.00
  YS02001586YS02001590    1.00   0.13  0.00  0.00  0.38  0.04  0.00  0.45  0.34  0.00
  YS02001590YS02001593    1.00   0.13  0.01  0.00  0.10  0.00  0.77  0.00  0.00  0.00
  YS02001593YS02001596    1.00   0.13  0.00  0.00  0.70  0.05  0.00  0.11  0.65  0.00
  YS02001596YS02001600    1.00   0.14  0.00  0.00  0.79  0.01  0.00  0.07  0.02  0.00
  YS02001600YS02001601    1.00   0.13  0.01  0.00  0.86  0.00  0.00  0.00  0.04  0.00
  YS02001601YS02001602    1.00   0.13  0.01  0.00  0.86  0.00  0.00  0.00  0.00  0.00
  YS02001602YS02001605    1.00   0.14  0.00  0.00  0.86  0.00  0.00  0.00  0.00  0.00
  YS02001605YS02001607    1.00   0.14  0.00  0.00  0.86  0.00  0.00  0.00  0.00  0.00
  YS02001607YS02001610    1.00   0.13  0.01  0.00  0.86  0.00  0.00  0.00  0.02  0.00
  YS02001610YS02001613    1.00   0.13  0.00  0.00  0.87  0.00  0.00  0.00  0.01  0.00
  YS02001613YS02001616    1.00   0.13  0.00  0.00  0.87  0.00  0.00  0.00  0.00  0.00
  YS02001616YS02001619    1.00   0.13  0.00  0.00  0.87  0.00  0.00  0.00  0.00  0.00
  YS02001619YS02001622    1.00   0.13  0.00  0.00  0.87  0.00  0.00  0.00  0.00  0.00
  YS02001622YS02001625    1.00   0.13  0.00  0.00  0.87  0.00  0.00  0.00  0.05  0.00
  YS02001625YS02001629    1.00   0.13  0.05  0.00  0.77  0.00  0.05  0.00  0.00  0.00
  YS02001629YS02163301    1.00   0.16  0.01  0.00  0.83  0.00  0.00  0.00  0.00  0.00
  YS02001633YS02163601    1.00   0.00  0.01  0.00  0.99  0.00  0.00  0.00  0.15  0.00
  YS02001641YS02001644    1.00   0.00  0.01  0.00  0.99  0.00  0.00  0.00  0.00  0.00
  YS02001644YS02001647    1.00   0.00  0.17  0.00  0.83  0.00  0.00  0.00  0.00  0.00
  YS02001647YS02001649    1.00   0.00  0.17  0.00  0.80  0.03  0.00  0.00  0.02  0.00
  YS02001649YS02001757    1.00   0.00  0.00  0.00  0.96  0.03  0.00  0.00  0.19  0.00
  YS02001652YS02001649    1.00   0.00  0.00  0.00  0.96  0.04  0.00  0.00  0.17  0.00
  YS02001655YS02001652    1.00   0.00  0.00  0.00  0.77  0.01  0.00  0.22  0.01  0.00
  YS02001658YS02001655    1.00   0.00  0.14  0.00  0.76  0.10  0.00  0.00  0.05  0.00
  YS02001661YS02001658    1.00   0.14  0.00  0.00  0.75  0.11  0.00  0.00  0.02  0.00
  YS02001664YS02001661    1.00   0.13  0.00  0.00  0.82  0.06  0.00  0.00  0.86  0.00
  YS02001745YS02001748    1.00   0.00  0.00  0.00  0.75  0.00  0.00  0.25  0.02  0.00
  YS02001748YS02001751    1.00   0.00  0.00  0.00  0.89  0.11  0.00  0.00  0.13  0.00
  YS02001751YS02001754    1.00   0.00  0.00  0.00  0.76  0.00  0.00  0.24  0.00  0.00
  YS02001754YS02001757    1.00   0.00  0.00  0.00  1.00  0.00  0.00  0.00  0.23  0.00
  YS02001757CaochengTiaoxuchi    1.00   0.00  0.00  0.00  0.98  0.02  0.00  0.00  0.22  0.00
  YS02001759YS02001757    1.00   0.00  0.00  0.00  1.00  0.00  0.00  0.00  0.06  0.00
  YS02001762YS02001759    1.00   0.00  0.00  0.00  1.00  0.00  0.00  0.00  0.04  0.00
  YS02001765YS02001762    1.00   0.00  0.00  0.00  1.00  0.00  0.00  0.00  0.16  0.00
  YS02001767YS02001765    1.00   0.00  0.00  0.00  1.00  0.00  0.00  0.00  0.00  0.00
  YS02001770YS02001767    1.00   0.00  0.00  0.00  1.00  0.00  0.00  0.00  0.00  0.00
  YS02001774YS02001770    1.00   0.00  0.13  0.00  0.87  0.00  0.00  0.00  0.03  0.00
  YS02001779YS02001774    1.00   0.00  0.00  0.00  1.00  0.00  0.00  0.00  0.18  0.00
  YS02001783YS02001784    1.00   0.00  0.18  0.00  0.82  0.00  0.00  0.00  0.00  0.00
  YS02001784YS02001785    1.00   0.00  0.00  0.00  1.00  0.00  0.00  0.00  0.17  0.00
  YS02001786YS02001788    1.00   0.00  0.00  0.00  0.95  0.05  0.00  0.00  0.00  0.00
  YS02001788YS02001790    1.00   0.00  0.00  0.00  0.95  0.05  0.00  0.00  0.19  0.00
  YS02001790YS02001791    1.00   0.00  0.00  0.00  0.77  0.23  0.00  0.00  0.03  0.00
  YS02001791YS02001793    1.00   0.00  0.00  0.00  0.76  0.24  0.00  0.00  0.00  0.00
  YS02001793JiankangQianchi    1.00   0.00  0.00  0.00  0.93  0.06  0.00  0.00  0.21  0.00
  YS02001882YS02001884    1.00   0.15  0.01  0.00  0.84  0.00  0.00  0.00  0.00  0.00
  YS02001884YS02001887    1.00   0.06  0.05  0.00  0.89  0.00  0.00  0.00  0.00  0.00
  YS02001887YS02001890    1.00   0.00  0.00  0.00  0.97  0.00  0.03  0.00  0.00  0.00
  YS02001890YS02001895    1.00   0.00  0.16  0.00  0.83  0.00  0.00  0.00  0.00  0.00
  YS02001895YS02001898    1.00   0.17  0.00  0.00  0.81  0.00  0.02  0.00  0.00  0.00
  YS02001898YS02001901    1.00   0.17  0.00  0.00  0.83  0.00  0.00  0.00  0.01  0.00
  YS02001901YS02001904    1.00   0.17  0.00  0.00  0.83  0.00  0.00  0.00  0.00  0.00
  YS02001904YS02001907    1.00   0.00  0.17  0.00  0.83  0.00  0.00  0.00  0.00  0.00
  YS02001907YS02006553    1.00   0.00  0.02  0.00  0.98  0.00  0.00  0.00  0.00  0.00
  YS02001910YS02001907    1.00   0.00  0.00  0.00  0.97  0.00  0.00  0.03  0.12  0.00
  YS02001915YS02001910    1.00   0.00  0.00  0.00  0.97  0.03  0.00  0.00  0.16  0.00
  YS02001918YS02001915    1.00   0.00  0.01  0.00  0.98  0.02  0.00  0.00  0.78  0.00
  YS02001920YS02001918    1.00   0.00  0.01  0.00  0.99  0.00  0.00  0.00  0.00  0.00
  YS02001923YS02001920    1.00   0.00  0.00  0.00  1.00  0.00  0.00  0.00  0.94  0.00
  YS02001926YS02001923    1.00   0.00  0.07  0.00  0.04  0.00  0.88  0.00  0.00  0.00
  YS02001929YS02001926    1.00   0.00  0.13  0.00  0.87  0.00  0.00  0.00  0.84  0.00
  YS02006553YS02006556    1.00   0.01  0.00  0.00  0.99  0.00  0.00  0.00  0.03  0.00
  YS02006556YS02006558    1.00   0.00  0.00  0.00  1.00  0.00  0.00  0.00  0.00  0.00
  YS02006558YS02006561    1.00   0.18  0.00  0.00  0.06  0.76  0.00  0.00  0.19  0.00
  YS02006561YS02001783    1.00   0.18  0.00  0.00  0.76  0.06  0.00  0.00  0.73  0.00
  YS02163301YS02001633    1.00   0.00  0.15  0.00  0.85  0.00  0.00  0.00  0.00  0.00
  YS02163601YS02164001    1.00   0.00  0.08  0.00  0.92  0.00  0.00  0.00  0.00  0.00
  YS02164001YS02001641    1.00   0.01  0.07  0.00  0.92  0.00  0.00  0.00  0.06  0.00
  
  
  *************************
  Conduit Surcharge Summary
  *************************
  
  ----------------------------------------------------------------------------
                                                           Hours        Hours 
                         --------- Hours Full --------   Above Full   Capacity
  Conduit                Both Ends  Upstream  Dnstream   Normal Flow   Limited
  ----------------------------------------------------------------------------
  WS02003072WS02003073        0.01      0.01      0.01      2.31         0.01
  WS02004404WS02004405        0.01      0.01      0.01      2.16         0.01
  WS02006109WS02006110        0.01      0.01      1.83      0.01         0.01
  WS02006110WS02006113        0.01      0.01      1.79      0.01         0.01
  WS02006111WS02006112        0.01      0.01      1.87      0.01         0.01
  WS02006228WS02006109        1.76      1.83      1.76      1.98         1.76
  WS02006229WS02006228        1.75      1.77      1.75      1.92         1.75
  WS02006230WS02006229        1.87      1.90      1.87      2.43         1.87
  WS02006231WS02006230        0.01      0.01      0.01      2.28         0.01
  WS02006232WS02006231        0.01      0.01      1.83      0.01         0.01
  WS02006234WS02006232        1.72      1.72      1.83      0.01         0.01
  WS02006235WS02006234        0.01      0.01      1.77      2.20         0.01
  WS02006238WS02006235        1.78      1.78      1.84      0.01         0.01
  WS02006239WS02006238        1.80      1.83      1.80      1.96         1.80
  WS02006240WS02006239        1.78      1.79      1.78      1.98         1.78
  WS02006242WS02006240        1.78      1.78      1.88      2.03         0.01
  WS02006243WS02006242        1.81      1.81      1.86      0.01         0.01
  WS02006245WS02006243        1.80      1.81      1.80      2.02         1.80
  WS02006247WS02006245        1.80      1.83      1.80      2.09         1.80
  WS02006248WS02006247        1.80      1.80      1.82      0.01         0.01
  WS02006249WS02006248        1.79      1.79      1.81      2.08         0.01
  WS02006251WS02006249        1.81      1.82      1.81      2.07         1.81
  WS02006252WS02006251        2.09      2.09      2.09      2.09         0.01
  WS02006256WS02006235        2.24      2.24      3.00      0.02         0.01
  YS02001580YS02001583        0.36      0.36      0.41      0.01         0.01
  YS02001583YS02001586        0.37      0.37      0.53      0.01         0.01
  YS02001586YS02001590        0.53      0.53      0.61      0.01         0.01
  YS02001590YS02001593        0.61      0.61      0.62      0.61         0.01
  YS02001593YS02001596        0.62      0.62      0.75      0.01         0.01
  YS02001596YS02001600        0.84      0.84      1.19      0.01         0.01
  YS02001600YS02001601        1.31      1.31      6.26      0.01         0.01
  YS02001601YS02001602        6.21      6.21      6.27      0.80         0.01
  YS02001602YS02001605        6.19      6.19      6.21      2.00         0.05
  YS02001605YS02001607        6.16      6.19      6.16      1.09         0.99
  YS02001607YS02001610        0.75      0.75      0.90      0.01         0.01
  YS02001610YS02001613        0.75      0.75      0.90      0.01         0.01
  YS02001613YS02001616        0.65      0.65      0.75      0.01         0.01
  YS02001616YS02001619        0.62      0.62      0.65      0.01         0.01
  YS02001619YS02001622        0.62      0.62      0.64      0.52         0.46
  YS02001622YS02001625        0.64      0.64      6.06      0.01         0.01
  YS02001625YS02001629        0.56      0.56      6.06      0.01         0.01
  YS02001629YS02163301        6.07      6.07      6.07      0.04         0.11
  YS02001633YS02163601        6.07      6.07      6.08      0.31         0.29
  YS02001641YS02001644        6.04      6.06      6.04      1.22         0.99
  YS02001644YS02001647        5.97      5.97      6.04      0.04         0.01
  YS02001647YS02001649        5.97      5.97      6.01      0.01         0.01
  YS02001649YS02001757        6.00      6.01      6.00      0.22         0.16
  YS02001652YS02001649        5.99      5.99      6.01      0.01         0.01
  YS02001655YS02001652        0.17      0.17      5.81      0.01         0.01
  YS02001658YS02001655        0.03      0.03      0.17      0.01         0.01
  YS02001661YS02001658        0.01      0.01      0.03      0.01         0.01
  YS02001748YS02001751        0.01      0.01      0.06      0.01         0.01
  YS02001751YS02001754        0.06      0.06      4.65      0.01         0.01
  YS02001754YS02001757        5.96      5.96      6.00      0.01         0.01
  YS02001757CaochengTiaoxuchi        5.95      6.00      5.95      0.22         0.15
  YS02001759YS02001757        5.99      5.99      6.00      0.01         0.01
  YS02001762YS02001759        5.99      5.99      5.99      0.01         0.02
  YS02001765YS02001762        5.99      5.99      5.99      0.01         0.01
  YS02001767YS02001765        5.99      5.99      5.99      0.01         0.02
  YS02001770YS02001767        5.99      5.99      5.99      0.34         0.51
  YS02001774YS02001770        5.99      5.99      5.99      0.01         0.01
  YS02001779YS02001774        0.58      0.58      5.99      0.01         0.01
  YS02001783YS02001784        0.49      0.49      0.50      0.45         0.43
  YS02001784YS02001785        0.50      0.50      0.50      0.66         0.49
  YS02001786YS02001788        0.49      0.50      0.49      0.57         0.49
  YS02001788YS02001790        0.49      0.49      6.05      0.01         0.01
  YS02001790YS02001791        6.05      6.05      6.05      0.25         0.24
  YS02001791YS02001793        6.05      6.05      6.07      0.01         0.01
  YS02001793JiankangQianchi        6.06      6.06      6.28      0.01         0.01
  YS02001882YS02001884        0.34      0.34      0.35      0.01         0.01
  YS02001884YS02001887        0.37      0.37      0.38      0.01         0.01
  YS02001887YS02001890        0.39      0.39      0.40      0.01         0.01
  YS02001890YS02001895        0.33      0.33      0.41      0.01         0.01
  YS02001895YS02001898        0.33      0.33      0.33      0.01         0.01
  YS02001898YS02001901        0.33      0.33      0.37      0.01         0.01
  YS02001901YS02001904        0.36      0.36      0.37      0.01         0.01
  YS02001904YS02001907        0.36      0.36      0.57      0.01         0.01
  YS02001907YS02006553        0.67      0.67      0.72      0.01         0.01
  YS02001910YS02001907        0.41      0.41      0.55      0.01         0.01
  YS02001915YS02001910        0.34      0.34      0.41      0.01         0.01
  YS02001918YS02001915        0.26      0.26      0.34      0.01         0.01
  YS02001920YS02001918        0.26      0.26      0.27      0.01         0.01
  YS02001923YS02001920        0.21      0.21      0.27      0.01         0.01
  YS02001926YS02001923        0.01      0.01      0.01      0.01         0.01
  YS02001929YS02001926        0.01      0.01      0.01      0.01         0.01
  YS02006553YS02006556        0.48      0.48      0.57      0.01         0.01
  YS02006556YS02006558        0.52      0.52      0.58      0.01         0.01
  YS02006558YS02006561        0.38      0.47      0.38      0.63         0.38
  YS02006561YS02001783        0.29      0.29      0.49      0.01         0.01
  YS02163301YS02001633        6.07      6.07      6.08      0.01         0.01
  YS02163601YS02164001        6.06      6.06      6.08      0.06         0.01
  YS02164001YS02001641        6.06      6.06      6.06      0.56         0.53
  
  
  ***************
  Pumping Summary
  ***************
  
  ---------------------------------------------------------------------------------------------------------
                                                  Min       Avg       Max     Total     Power    % Time Off
                        Percent   Number of      Flow      Flow      Flow    Volume     Usage    Pump Curve
  Pump                 Utilized   Start-Ups       LPS       LPS       LPS  10^6 ltr     Kw-hr    Low   High
  ---------------------------------------------------------------------------------------------------------
  CC-R1                    1.06           1      0.00    683.00    683.00     0.208      3.51    0.0  100.0
  CC-R2                    1.06           1      0.00    683.00    683.00     0.208      3.51    0.0  100.0
  CC-S1                   26.16           2      0.00    200.00    200.00     1.507      7.46    0.0   42.7
  CC-S2                   26.16           2      0.00    200.00    200.00     1.507      7.46    0.0   42.7
  JK-R1                    0.97           2      0.00    347.46   1000.00     0.078      0.47    0.0    0.0
  JK-R2                    0.97           2      0.00    347.46   1000.00     0.078      0.47    0.0    0.0
  JK-S                     0.97           2      0.00    104.30    300.00     0.023      0.44    0.0    0.0
  XR-1                   100.00           1      0.00     95.00     95.00     2.736     68.18    0.0    0.0
  XR-2                   100.00           1      0.00     95.00     95.00     2.736     68.18    0.0    0.0
  XR-3                   100.00           1      0.00     95.00     95.00     2.736     68.18    0.0    0.0
  XR-4                   100.00           1      0.00     95.00     95.00     2.736     68.18    0.0    0.0
  

  Analysis begun on:  Wed Nov  5 16:30:05 2025
  Analysis ended on:  Wed Nov  5 16:30:08 2025
  Total elapsed time: 00:00:03