
  EPA STORM WATER MANAGEMENT MODEL - VERSION 5.2 (Build 5.2.4)
  PYSWMM TOOLKIT API - VERSION v1.0 (2023-11-27)
  ------------------------------------------------------------

  WARNING 04: minimum elevation drop used for Conduit WS02004404WS02004405
  WARNING 03: negative offset ignored for Link YS02001904YS02001907
  
  ****************
  Analysis Options
  ****************
  Flow Units ............... LPS
  Process Models:
    Rainfall/Runoff ........ YES
    RDII ................... NO
    Snowmelt ............... NO
    Groundwater ............ NO
    Flow Routing ........... YES
    Ponding Allowed ........ NO
    Water Quality .......... NO
  Infiltration Method ...... HORTON
  Flow Routing Method ...... DYNWAVE
  Surcharge Method ......... EXTRAN
  Starting Date ............ 08/28/2015 08:00:00
  Ending Date .............. 08/28/2015 16:00:00
  Antecedent Dry Days ...... 8.0
  Report Time Step ......... 00:01:00
  Wet Time Step ............ 00:01:00
  Dry Time Step ............ 00:01:00
  Routing Time Step ........ 30.00 sec
  Variable Time Step ....... YES
  Maximum Trials ........... 8
  Number of Threads ........ 4
  Head Tolerance ........... 0.001500 m
  
  
  **************************        Volume         Depth
  Runoff Quantity Continuity     hectare-m            mm
  **************************     ---------       -------
  Initial LID Storage ......         0.049         1.488
  Total Precipitation ......         1.864        56.199
  Evaporation Loss .........         0.000         0.000
  Infiltration Loss ........         0.078         2.348
  Surface Runoff ...........         1.368        41.237
  Final Storage ............         0.468        14.112
  Continuity Error (%) .....        -0.017
  
  
  **************************        Volume        Volume
  Flow Routing Continuity        hectare-m      10^6 ltr
  **************************     ---------     ---------
  Dry Weather Inflow .......         0.602         6.020
  Wet Weather Inflow .......         1.368        13.678
  Groundwater Inflow .......         0.000         0.000
  RDII Inflow ..............         0.000         0.000
  External Inflow ..........         0.105         1.045
  External Outflow .........         1.763        17.631
  Flooding Loss ............         0.287         2.874
  Evaporation Loss .........         0.000         0.000
  Exfiltration Loss ........         0.000         0.000
  Initial Stored Volume ....         0.303         3.031
  Final Stored Volume ......         0.332         3.320
  Continuity Error (%) .....        -0.215
  
  
  *************************
  Highest Continuity Errors
  *************************
  Node YS02001884 (5.12%)
  Node YS02001583 (-4.00%)
  Node YS02001774 (1.07%)
  
  
  ***************************
  Time-Step Critical Elements
  ***************************
  Link WS02004404WS02004405 (37.93%)
  Link WS02006252WS02006251 (15.31%)
  Link WS02006238WS02006235 (15.17%)
  Link YS02001791YS02001793 (11.19%)
  Link WS02003066WSF200 (5.25%)
  
  
  ********************************
  Highest Flow Instability Indexes
  ********************************
  Link WS02006113WS02006111 (27)
  Link WS02006238WS02006235 (27)
  Link WS02006252WS02006251 (19)
  Link WS02006235WS02006234 (18)
  Link WS02006111WS02006112 (18)
  
  
  *********************************
  Most Frequent Nonconverging Nodes
  *********************************
  Node CC-1 (12.39%)
  Node CC-2 (12.39%)
  Node JK-1 (12.39%)
  Node JK-2 (12.39%)
  Node WSC (12.39%)
  
  
  *************************
  Routing Time Step Summary
  *************************
  Minimum Time Step           :     0.00 sec
  Average Time Step           :     3.38 sec
  Maximum Time Step           :     7.04 sec
  % of Time in Steady State   :     0.00
  Average Iterations per Step :     3.22
  % of Steps Not Converging   :    12.39
  Time Step Frequencies       :
     30.000 - 13.228 sec      :     0.00 %
     13.228 -  5.833 sec      :    27.70 %
      5.833 -  2.572 sec      :    24.71 %
      2.572 -  1.134 sec      :    26.44 %
      1.134 -  0.500 sec      :    21.15 %
  
  
  ***************************
  Subcatchment Runoff Summary
  ***************************
  
  ------------------------------------------------------------------------------------------------------------------------------
                            Total      Total      Total      Total     Imperv       Perv      Total       Total     Peak  Runoff
                           Precip      Runon       Evap      Infil     Runoff     Runoff     Runoff      Runoff   Runoff   Coeff
  Subcatchment                 mm         mm         mm         mm         mm         mm         mm    10^6 ltr      LPS
  ------------------------------------------------------------------------------------------------------------------------------
  sub60                     56.20       0.00       0.00       1.38      37.24       3.82      41.06        0.54   357.94   0.731
  sub61                     56.20       0.00       0.00       2.13      37.21       5.68      42.89        0.79   523.51   0.763
  sub62                     56.20       0.00       0.00       0.94      39.66       2.60      42.26        1.16   719.33   0.752
  sub63                     56.20       0.00       0.00       3.93      31.87       9.42      41.29        0.94   602.29   0.735
  sub64                     56.20       0.00       0.00       1.88      36.28       4.69      40.97        0.98   590.38   0.729
  sub65                     56.20       0.00       0.00       1.73      39.16       4.28      43.44        1.20   689.97   0.773
  sub66                     56.20       0.00       0.00       4.61      30.81       8.32      39.12        1.82   918.92   0.696
  sub67                     56.20       0.00       0.00       0.93      40.67       2.69      43.36        0.81   550.30   0.772
  sub68                     56.20       0.00       0.00       1.63      35.91       4.36      40.27        1.11   716.08   0.717
  sub69                     56.20       0.00       0.00       1.51      37.78       5.17      42.95        1.59   891.40   0.764
  sub70                     56.20       0.00       0.00       5.09      30.26      10.56      40.81        1.18   532.01   0.726
  sub71                     56.20       0.00       0.00       0.87      36.03       2.34      38.37        1.00   595.00   0.683
  sub72                     56.20       0.00       0.00       0.83      38.91       2.18      41.09        0.56   308.33   0.731
  

  ***********************
  LID Performance Summary
  ***********************

  --------------------------------------------------------------------------------------------------------------------
                                         Total      Evap     Infil   Surface    Drain    Initial     Final  Continuity
                                        Inflow      Loss      Loss   Outflow   Outflow   Storage   Storage       Error
  Subcatchment      LID Control             mm        mm        mm        mm        mm        mm        mm           %
  --------------------------------------------------------------------------------------------------------------------
  sub60             GreenRoof            56.20      0.00      0.00      0.00      0.00      7.05     63.26       -0.01
  sub61             GreenRoof            56.20      0.00      0.00      0.00      0.00      7.05     63.26       -0.01
  sub62             GreenRoof            56.20      0.00      0.00      0.00      0.00      7.05     63.26       -0.01
  sub63             GreenRoof            56.20      0.00      0.00      0.00      0.00      7.05     63.26       -0.01
  sub64             GreenRoof            56.20      0.00      0.00      0.00      0.00      7.05     63.26       -0.01
  sub65             GreenRoof            56.20      0.00      0.00      0.00      0.00      7.05     63.26       -0.01
  sub66             GreenRoof            56.20      0.00      0.00      0.00      0.00      7.05     63.26       -0.01
  sub67             GreenRoof            56.20      0.00      0.00      0.00      0.00      7.05     63.26       -0.01
  sub68             GreenRoof            56.20      0.00      0.00      0.00      0.00      7.05     63.26       -0.01
  sub69             GreenRoof            56.20      0.00      0.00      0.00      0.00      7.05     63.26       -0.01
  sub70             GreenRoof            56.20      0.00      0.00      0.00      0.00      7.05     63.26       -0.01
  sub71             GreenRoof            56.20      0.00      0.00      0.00      0.00      7.05     63.26       -0.01
  sub72             GreenRoof            56.20      0.00      0.00      0.00      0.00      7.05     63.26       -0.01
  
  ******************
  Node Depth Summary
  ******************
  
  ---------------------------------------------------------------------------------
                                 Average  Maximum  Maximum  Time of Max    Reported
                                   Depth    Depth      HGL   Occurrence   Max Depth
  Node                 Type       Meters   Meters   Meters  days hr:min      Meters
  ---------------------------------------------------------------------------------
  WS02001211           JUNCTION     0.60     0.64     5.48     0  02:53        0.64
  WS02001212           JUNCTION     0.34     0.38     5.45     0  02:50        0.38
  WS02001213           JUNCTION     0.53     0.65     5.41     0  02:49        0.65
  WS02003059           JUNCTION     0.59     0.72     5.40     0  02:49        0.72
  WS02003060           JUNCTION     0.30     0.45     5.38     0  02:48        0.45
  WS02003066           JUNCTION     0.16     0.30     5.85     0  02:48        0.30
  WS02003067           JUNCTION     0.43     0.70     6.02     0  02:47        0.70
  WS02003069           JUNCTION     0.34     0.51     5.10     0  02:49        0.51
  WS02003072           JUNCTION     0.40     0.58     4.95     0  02:49        0.58
  WS02003073           JUNCTION     0.23     0.35     4.41     0  02:50        0.35
  WS02004138           JUNCTION     0.13     0.14     7.39     0  00:29        0.14
  WS02004139           JUNCTION     0.54     0.58     5.49     0  02:51        0.58
  WS02004401           JUNCTION     0.52     0.85     6.85     0  02:47        0.85
  WS02004402           JUNCTION     0.56     0.88     6.84     0  02:45        0.88
  WS02004403           JUNCTION     0.58     0.89     6.82     0  02:45        0.89
  WS02004404           JUNCTION     0.65     0.96     6.81     0  02:47        0.96
  WS02004405           JUNCTION     0.65     0.96     6.81     0  02:45        0.96
  WS02004406           JUNCTION     0.66     0.96     6.79     0  02:45        0.96
  WS02004407           JUNCTION     0.14     0.30     6.61     0  02:46        0.30
  WS02004409           JUNCTION     0.31     0.67     6.44     0  02:46        0.67
  WS02004410           JUNCTION     0.34     0.68     6.40     0  02:46        0.68
  WS02004411           JUNCTION     0.36     0.69     6.37     0  02:47        0.69
  WS02004412           JUNCTION     0.39     0.70     6.34     0  02:47        0.70
  WS02004413           JUNCTION     0.54     0.86     6.33     0  02:47        0.86
  WS02006109           JUNCTION     0.59     1.11     7.72     0  03:11        1.11
  WS02006110           JUNCTION     0.59     1.08     7.67     0  03:11        1.08
  WS02006111           JUNCTION     0.15     0.29     6.99     0  02:58        0.29
  WS02006112           JUNCTION     0.68     1.08     6.96     0  03:11        1.06
  WS02006113           JUNCTION     0.23     0.46     7.35     0  02:11        0.46
  WS02006115           JUNCTION     0.41     0.75     6.89     0  02:46        0.75
  WS02006116           JUNCTION     0.50     0.83     6.87     0  02:46        0.83
  WS02006228           JUNCTION     0.59     1.11     7.76     0  03:31        1.10
  WS02006229           JUNCTION     0.56     1.12     7.82     0  03:10        1.08
  WS02006230           JUNCTION     0.56     1.26     8.00     0  03:10        1.18
  WS02006231           JUNCTION     0.37     1.04     8.16     0  03:10        0.93
  WS02006232           JUNCTION     0.50     1.15     8.19     0  03:10        1.14
  WS02006234           JUNCTION     0.43     1.17     8.32     0  03:26        1.16
  WS02006235           JUNCTION     0.48     1.27     8.43     0  03:26        1.27
  WS02006238           JUNCTION     0.50     1.30     8.45     0  03:26        1.30
  WS02006239           JUNCTION     0.46     1.32     8.53     0  02:10        1.32
  WS02006240           JUNCTION     0.44     1.30     8.59     0  02:10        1.30
  WS02006242           JUNCTION     0.49     1.37     8.63     0  02:10        1.37
  WS02006243           JUNCTION     0.42     1.26     8.68     0  03:35        1.23
  WS02006245           JUNCTION     0.42     1.24     8.72     0  03:35        1.18
  WS02006247           JUNCTION     0.44     1.22     8.72     0  03:35        1.18
  WS02006248           JUNCTION     0.40     1.10     8.69     0  02:10        1.10
  WS02006249           JUNCTION     0.43     1.09     8.69     0  02:09        1.09
  WS02006251           JUNCTION     0.43     1.35     9.02     0  02:09        1.13
  WS02006252           JUNCTION     0.29     1.50     9.74     0  00:00        0.69
  WS02006256           JUNCTION     1.16     2.35     9.28     0  00:00        2.35
  WSF200               JUNCTION     0.13     0.31     5.54     0  02:48        0.31
  YS02001580           JUNCTION     0.08     1.05     9.59     0  02:16        0.77
  YS02001583           JUNCTION     0.11     1.04     9.54     0  02:16        0.83
  YS02001586           JUNCTION     0.21     1.13     9.30     0  02:16        1.13
  YS02001590           JUNCTION     0.31     1.40     9.26     0  02:16        1.37
  YS02001593           JUNCTION     0.24     1.34     9.20     0  02:16        1.28
  YS02001596           JUNCTION     0.33     1.69     9.10     0  02:16        1.68
  YS02001600           JUNCTION     0.43     1.87     9.00     0  02:16        1.86
  YS02001601           JUNCTION     0.63     2.06     8.90     0  02:16        2.06
  YS02001602           JUNCTION     0.54     1.87     8.77     0  02:18        1.87
  YS02001605           JUNCTION     0.50     1.78     8.68     0  02:22        1.77
  YS02001607           JUNCTION     0.47     1.65     8.49     0  02:20        1.64
  YS02001610           JUNCTION     0.52     1.68     8.48     0  02:19        1.68
  YS02001613           JUNCTION     0.47     1.65     8.49     0  02:23        1.65
  YS02001616           JUNCTION     0.41     1.59     8.50     0  02:23        1.59
  YS02001619           JUNCTION     0.38     1.59     8.52     0  02:24        1.59
  YS02001622           JUNCTION     0.37     1.57     8.47     0  02:24        1.57
  YS02001625           JUNCTION     0.63     1.78     8.38     0  02:19        1.78
  YS02001629           JUNCTION     0.51     1.85     8.40     0  02:21        1.85
  YS02001633           JUNCTION     0.59     2.00     8.45     0  02:21        1.99
  YS02001641           JUNCTION     0.56     1.95     8.38     0  02:21        1.95
  YS02001644           JUNCTION     0.56     1.92     8.35     0  02:21        1.92
  YS02001647           JUNCTION     0.33     1.73     8.34     0  02:23        1.73
  YS02001649           JUNCTION     0.38     1.95     8.34     0  02:23        1.95
  YS02001652           JUNCTION     0.25     1.75     8.35     0  02:21        1.71
  YS02001655           JUNCTION     0.19     1.68     8.53     0  02:21        1.46
  YS02001658           JUNCTION     0.13     1.58     8.73     0  02:21        1.19
  YS02001661           JUNCTION     0.16     1.01     8.41     0  02:25        0.94
  YS02001664           JUNCTION     0.07     0.41     8.34     0  02:25        0.40
  YS02001745           JUNCTION     0.07     0.69     8.21     0  02:25        0.69
  YS02001748           JUNCTION     0.13     1.47     8.55     0  02:22        1.18
  YS02001751           JUNCTION     0.16     1.56     8.44     0  02:23        1.56
  YS02001754           JUNCTION     0.21     1.84     8.45     0  02:23        1.84
  YS02001757           JUNCTION     0.39     2.04     8.30     0  02:23        2.04
  YS02001759           JUNCTION     0.33     1.95     8.32     0  02:23        1.95
  YS02001762           JUNCTION     0.32     1.93     8.33     0  02:23        1.89
  YS02001765           JUNCTION     0.30     1.90     8.35     0  02:23        1.86
  YS02001767           JUNCTION     0.29     1.88     8.37     0  02:23        1.85
  YS02001770           JUNCTION     0.31     1.92     8.42     0  02:23        1.89
  YS02001774           JUNCTION     0.37     1.98     8.40     0  02:23        1.95
  YS02001779           JUNCTION     0.20     1.68     8.37     0  02:19        1.68
  YS02001783           JUNCTION     0.27     1.23     7.37     0  02:22        1.22
  YS02001784           JUNCTION     0.29     1.11     7.18     0  02:24        1.10
  YS02001786           JUNCTION     0.24     0.87     6.90     0  02:22        0.87
  YS02001788           JUNCTION     0.18     0.62     6.60     0  02:24        0.62
  YS02001790           JUNCTION     0.21     0.72     6.37     0  02:25        0.72
  YS02001791           JUNCTION     0.13     0.43     5.90     0  02:28        0.43
  YS02001793           JUNCTION     0.07     0.29     5.12     0  02:30        0.28
  YS02001882           JUNCTION     0.33     1.66     8.37     0  02:22        1.62
  YS02001884           JUNCTION     0.42     1.74     8.36     0  02:22        1.73
  YS02001887           JUNCTION     0.49     1.82     8.35     0  02:24        1.82
  YS02001890           JUNCTION     0.52     1.81     8.32     0  02:22        1.81
  YS02001895           JUNCTION     0.30     1.57     8.32     0  02:22        1.55
  YS02001898           JUNCTION     0.31     1.57     8.31     0  02:22        1.56
  YS02001901           JUNCTION     0.42     1.68     8.29     0  02:22        1.66
  YS02001904           JUNCTION     0.40     1.64     8.27     0  02:22        1.63
  YS02001907           JUNCTION     0.71     1.96     8.25     0  02:22        1.96
  YS02001910           JUNCTION     0.51     1.97     8.48     0  02:22        1.96
  YS02001915           JUNCTION     0.33     1.92     8.64     0  02:22        1.91
  YS02001918           JUNCTION     0.16     1.81     8.88     0  02:22        1.81
  YS02001920           JUNCTION     0.24     2.07     9.08     0  02:22        1.77
  YS02001923           JUNCTION     0.12     2.02     9.28     0  02:22        1.47
  YS02001926           JUNCTION     0.16     1.90     9.35     0  02:22        1.28
  YS02001929           JUNCTION     0.09     1.78     9.47     0  02:22        1.11
  YS02006553           JUNCTION     0.71     1.97     8.26     0  02:25        1.97
  YS02006556           JUNCTION     0.68     1.94     8.25     0  02:24        1.94
  YS02006558           JUNCTION     0.73     1.98     8.25     0  02:24        1.98
  YS02006561           JUNCTION     0.16     0.90     7.56     0  02:22        0.88
  YS02163301           JUNCTION     0.53     1.91     8.42     0  02:21        1.90
  YS02163601           JUNCTION     0.62     2.03     8.42     0  02:22        2.03
  YS02164001           JUNCTION     0.55     1.95     8.41     0  02:22        1.95
  CC-1                 OUTFALL      0.00     0.00     0.00     0  00:00        0.00
  CC-2                 OUTFALL      0.00     0.00     0.00     0  00:00        0.00
  JK-1                 OUTFALL      0.00     0.00     0.00     0  00:00        0.00
  JK-2                 OUTFALL      0.00     0.00     0.00     0  00:00        0.00
  WSC                  OUTFALL      0.23     0.35     1.02     0  02:51        0.35
  CC-storage           STORAGE      0.84     1.63     7.13     0  02:41        1.63
  JK-storage           STORAGE      2.51     4.22     5.02     0  02:21        4.22
  XR-storage           STORAGE      7.81     9.26     7.26     0  08:00        9.26
  
  
  *******************
  Node Inflow Summary
  *******************
  
  -------------------------------------------------------------------------------------------------
                                  Maximum  Maximum                  Lateral       Total        Flow
                                  Lateral    Total  Time of Max      Inflow      Inflow     Balance
                                   Inflow   Inflow   Occurrence      Volume      Volume       Error
  Node                 Type           LPS      LPS  days hr:min    10^6 ltr    10^6 ltr     Percent
  -------------------------------------------------------------------------------------------------
  WS02001211           JUNCTION      7.35   201.13     0  03:20       0.212        5.44       0.611
  WS02001212           JUNCTION      0.00   202.23     0  03:48           0        5.41       0.290
  WS02001213           JUNCTION      0.00   204.24     0  03:49           0        5.39       0.331
  WS02003059           JUNCTION      0.00   209.39     0  03:49           0        5.38       0.592
  WS02003060           JUNCTION     16.53   751.19     0  02:50       0.476         9.2       0.152
  WS02003066           JUNCTION      0.00   537.10     0  02:48           0        3.37       0.036
  WS02003067           JUNCTION      0.00   537.07     0  02:47           0        3.38       0.119
  WS02003069           JUNCTION      0.32   751.37     0  02:48     0.00922        9.19       0.161
  WS02003072           JUNCTION      0.00   751.29     0  02:49           0        9.17       0.220
  WS02003073           JUNCTION      1.82   753.05     0  02:50      0.0524         9.2       0.226
  WS02004138           JUNCTION      0.00   380.00     0  00:00           0        5.25       0.053
  WS02004139           JUNCTION      0.32   191.16     0  00:29     0.00924        5.26       0.509
  WS02004401           JUNCTION      0.00   538.29     0  02:45           0        3.48       0.284
  WS02004402           JUNCTION      0.00   538.20     0  02:45           0        3.47       0.290
  WS02004403           JUNCTION      0.00   538.15     0  02:47           0        3.46       0.284
  WS02004404           JUNCTION      0.16   538.03     0  02:45     0.00467        3.45       0.238
  WS02004405           JUNCTION      0.04   538.04     0  02:45      0.0011        3.44       0.356
  WS02004406           JUNCTION      0.00   538.15     0  02:47           0        3.43       0.593
  WS02004407           JUNCTION      0.00   537.77     0  02:46           0        3.41       0.026
  WS02004409           JUNCTION      0.00   537.61     0  02:46           0        3.41       0.065
  WS02004410           JUNCTION      0.00   537.47     0  02:46           0        3.41       0.114
  WS02004411           JUNCTION      0.00   537.36     0  02:46           0         3.4       0.150
  WS02004412           JUNCTION      0.00   537.27     0  02:47           0         3.4       0.205
  WS02004413           JUNCTION      0.00   537.22     0  02:47           0        3.39       0.369
  WS02006109           JUNCTION      1.23   550.10     0  03:21      0.0354        3.52       0.230
  WS02006110           JUNCTION      0.00   551.43     0  03:21           0        3.51       0.176
  WS02006111           JUNCTION      0.00   560.33     0  02:52           0         3.5       0.015
  WS02006112           JUNCTION      0.00   543.02     0  02:50           0         3.5       0.485
  WS02006113           JUNCTION      0.00   560.69     0  03:11           0        3.51       0.050
  WS02006115           JUNCTION      0.00   548.40     0  02:46           0        3.49       0.176
  WS02006116           JUNCTION      0.00   539.76     0  02:46           0        3.48       0.139
  WS02006228           JUNCTION      0.00   548.85     0  03:21           0        3.49       0.096
  WS02006229           JUNCTION      0.00   547.96     0  03:21           0        3.49       0.112
  WS02006230           JUNCTION     10.28   588.54     0  03:10       0.296         3.5       0.142
  WS02006231           JUNCTION      0.00   570.58     0  03:10           0         3.2      -0.067
  WS02006232           JUNCTION      0.00   569.49     0  03:10           0         3.2       0.197
  WS02006234           JUNCTION      0.00   565.73     0  03:10           0         3.2      -0.199
  WS02006235           JUNCTION      0.00   562.13     0  03:10           0        3.23       0.166
  WS02006238           JUNCTION      0.00   424.32     0  03:12           0        2.23      -0.108
  WS02006239           JUNCTION      0.00   423.28     0  03:12           0        2.21      -0.051
  WS02006240           JUNCTION      0.00   421.22     0  03:12           0        2.19      -0.070
  WS02006242           JUNCTION      0.00   420.97     0  03:12           0        2.18      -0.158
  WS02006243           JUNCTION      0.00   421.14     0  03:12           0        2.18      -0.065
  WS02006245           JUNCTION      0.00   420.30     0  03:12           0        2.19       0.454
  WS02006247           JUNCTION      0.00   419.73     0  03:12           0        2.19      -0.007
  WS02006248           JUNCTION      0.00   418.72     0  03:11           0        2.19      -0.080
  WS02006249           JUNCTION      0.00   458.97     0  00:00           0        2.47       0.450
  WS02006251           JUNCTION      0.08   407.15     0  02:09     0.00222        2.48       0.043
  WS02006252           JUNCTION      0.00   400.00     0  00:00           0        2.46      -0.376
  WS02006256           JUNCTION      0.00   323.84     0  01:55           0        1.49      -0.372
  WSF200               JUNCTION      0.00   537.13     0  02:48           0        3.37       0.013
  YS02001580           JUNCTION      0.00    77.68     0  02:16           0       0.004       0.741
  YS02001583           JUNCTION      0.00   135.94     0  02:16           0      0.0152      -3.843
  YS02001586           JUNCTION    532.01   532.01     0  02:26        1.18        1.19       0.091
  YS02001590           JUNCTION      0.00   318.50     0  02:31           0        1.06      -0.032
  YS02001593           JUNCTION      0.00   318.20     0  02:31           0        1.06       0.003
  YS02001596           JUNCTION      0.00   318.10     0  02:24           0        1.06      -0.005
  YS02001600           JUNCTION      0.00   318.12     0  02:31           0        1.06       0.014
  YS02001601           JUNCTION    891.40  1209.00     0  02:25        1.59        2.65       0.024
  YS02001602           JUNCTION      0.00   492.52     0  02:15           0        1.95       0.015
  YS02001605           JUNCTION      0.00   491.89     0  02:15           0        1.88       0.020
  YS02001607           JUNCTION      0.00   492.02     0  02:15           0        1.88       0.101
  YS02001610           JUNCTION      0.00   492.39     0  02:15           0        1.89       0.115
  YS02001613           JUNCTION      0.00   493.30     0  02:15           0        1.65       0.092
  YS02001616           JUNCTION      0.00   490.84     0  02:15           0        1.65       0.021
  YS02001619           JUNCTION    918.92   918.92     0  02:26        1.82        3.46      -0.001
  YS02001622           JUNCTION      0.00   904.63     0  02:18           0        3.45      -0.005
  YS02001625           JUNCTION      0.00  1042.74     0  02:26           0        3.49       0.256
  YS02001629           JUNCTION      0.00   904.40     0  02:18           0        2.97       0.018
  YS02001633           JUNCTION    690.17  1277.20     0  02:19         1.2        4.12       0.081
  YS02001641           JUNCTION      0.00  1278.21     0  02:19           0        4.08       0.070
  YS02001644           JUNCTION    590.42  1612.94     0  02:19       0.985        5.06       0.065
  YS02001647           JUNCTION      0.00  1612.88     0  02:19           0        4.99       0.007
  YS02001649           JUNCTION      0.00  1778.05     0  02:20           0        5.93       0.005
  YS02001652           JUNCTION      0.00   641.61     0  02:25           0       0.943      -0.112
  YS02001655           JUNCTION      0.15   640.18     0  02:25     0.00443       0.942      -0.021
  YS02001658           JUNCTION      0.00   638.19     0  02:25           0       0.937      -0.089
  YS02001661           JUNCTION      0.00   740.05     0  02:26           0       0.937       0.025
  YS02001664           JUNCTION    602.29   602.29     0  02:25       0.937       0.937      -0.010
  YS02001745           JUNCTION    357.94   357.94     0  02:25        0.54        0.54       0.190
  YS02001748           JUNCTION      0.04   492.92     0  02:22      0.0013        0.54      -0.335
  YS02001751           JUNCTION      0.01   359.59     0  02:25    0.000317       0.549       0.122
  YS02001754           JUNCTION      0.26   359.51     0  02:25     0.00749       0.565      -0.219
  YS02001757           JUNCTION      0.00  2974.50     0  02:24           0        8.45       0.009
  YS02001759           JUNCTION    523.55  1198.34     0  02:25       0.788        1.96      -0.019
  YS02001762           JUNCTION      0.00   682.45     0  02:26           0        1.17      -0.011
  YS02001765           JUNCTION      0.00   682.89     0  02:26           0        1.17      -0.012
  YS02001767           JUNCTION      0.54   682.39     0  02:26      0.0154        1.17      -0.002
  YS02001770           JUNCTION    719.49   719.49     0  02:25        1.16         1.2      -0.067
  YS02001774           JUNCTION      0.00   262.56     0  02:19           0      0.0659       1.081
  YS02001779           JUNCTION      0.01   264.96     0  02:19    0.000144      0.0231      -2.886
  YS02001783           JUNCTION      0.00  1155.88     0  02:24           0        3.18       0.006
  YS02001784           JUNCTION      1.06  1156.93     0  02:24      0.0305        3.21       0.017
  YS02001786           JUNCTION      0.06  1157.30     0  02:24     0.00162        3.21       0.021
  YS02001788           JUNCTION      0.07  1158.02     0  02:24     0.00204        3.22       0.008
  YS02001790           JUNCTION      0.15  1166.03     0  02:25     0.00446        3.22       0.022
  YS02001791           JUNCTION      0.00  1278.07     0  02:25           0        3.22      -0.018
  YS02001793           JUNCTION      0.00  1246.40     0  02:26           0        3.22       0.006
  YS02001882           JUNCTION      0.00    27.04     0  02:19           0      0.0125       5.399
  YS02001884           JUNCTION      0.00    59.51     0  02:19           0      0.0482       5.397
  YS02001887           JUNCTION    550.75   551.14     0  02:25       0.819       0.853       0.528
  YS02001890           JUNCTION      0.00   551.28     0  02:25           0       0.812       0.632
  YS02001895           JUNCTION      0.00   511.25     0  02:25           0         0.8       0.182
  YS02001898           JUNCTION      0.00   511.47     0  02:25           0       0.798       0.053
  YS02001901           JUNCTION      0.00   511.89     0  02:26           0       0.801       0.408
  YS02001904           JUNCTION      0.00   510.98     0  02:26           0       0.805       0.365
  YS02001907           JUNCTION      0.00  1458.04     0  02:23           0        2.45       0.734
  YS02001910           JUNCTION      0.00   981.41     0  02:23           0        1.65       0.437
  YS02001915           JUNCTION    595.02   981.73     0  02:23           1        1.68       0.093
  YS02001918           JUNCTION      0.00   451.28     0  02:23           0       0.701       0.031
  YS02001920           JUNCTION      2.87   450.19     0  02:23      0.0827       0.687       0.149
  YS02001923           JUNCTION      0.04   412.07     0  02:23     0.00109       0.591      -0.084
  YS02001926           JUNCTION      0.05   408.29     0  02:23      0.0015       0.574       0.017
  YS02001929           JUNCTION    308.33   313.28     0  02:22       0.565       0.565      -0.147
  YS02006553           JUNCTION      0.00   815.39     0  02:34           0         2.1       0.576
  YS02006556           JUNCTION      0.00   816.48     0  02:34           0         2.1       0.394
  YS02006558           JUNCTION    716.96  1157.12     0  02:24        1.13        3.21       0.110
  YS02006561           JUNCTION      0.00  1156.48     0  02:24           0        3.18       0.001
  YS02163301           JUNCTION      0.00   906.69     0  02:18           0        2.97       0.048
  YS02163601           JUNCTION      0.11  1278.47     0  02:19     0.00317        4.07       0.118
  YS02164001           JUNCTION      0.00  1278.68     0  02:19           0        4.07       0.056
  CC-1                 OUTFALL       0.00   683.00     0  00:00           0        3.53       0.000
  CC-2                 OUTFALL       0.00   683.00     0  00:00           0        3.22       0.000
  JK-1                 OUTFALL       0.00  1000.00     0  00:00           0        1.64       0.000
  JK-2                 OUTFALL       0.00  1000.00     0  00:00           0      0.0484       0.000
  WSC                  OUTFALL       0.00   753.00     0  02:51           0        9.18       0.000
  CC-storage           STORAGE       0.00  2974.15     0  02:24           0        10.7      -0.215
  JK-storage           STORAGE       0.00  1215.20     0  02:29           0        3.37       0.170
  XR-storage           STORAGE     200.00   200.00     0  00:00        5.76        6.36       0.001
  
  
  **********************
  Node Surcharge Summary
  **********************
  
  Surcharging occurs when water rises above the top of the highest conduit.
  ---------------------------------------------------------------------
                                               Max. Height   Min. Depth
                                   Hours       Above Crown    Below Rim
  Node                 Type      Surcharged         Meters       Meters
  ---------------------------------------------------------------------
  WS02006109           JUNCTION        1.51          0.285        1.535
  WS02006110           JUNCTION        1.01          0.172        1.678
  WS02006112           JUNCTION        1.00          0.077        1.603
  WS02006228           JUNCTION        1.50          0.276        1.924
  WS02006229           JUNCTION        1.52          0.323        2.127
  WS02006230           JUNCTION        1.02          0.180        1.390
  WS02006231           JUNCTION        1.08          0.326        1.204
  WS02006232           JUNCTION        1.57          0.453        1.027
  WS02006234           JUNCTION        1.35          0.446        0.794
  WS02006235           JUNCTION        1.50          0.556        0.734
  WS02006238           JUNCTION        1.53          0.583        0.847
  WS02006239           JUNCTION        1.44          0.578        0.712
  WS02006240           JUNCTION        1.45          0.592        0.798
  WS02006242           JUNCTION        1.47          0.636        0.184
  WS02006243           JUNCTION        1.46          0.545        0.225
  WS02006245           JUNCTION        1.45          0.527        0.323
  WS02006247           JUNCTION        1.45          0.515        0.245
  WS02006248           JUNCTION        1.44          0.380        0.000
  WS02006249           JUNCTION        1.44          0.390        0.000
  WS02006251           JUNCTION        1.11          0.322        0.858
  WS02006252           JUNCTION        1.59          1.100        0.000
  WS02006256           JUNCTION        3.63          2.050        0.000
  YS02001580           JUNCTION        0.40          0.450        0.000
  YS02001583           JUNCTION        0.41          0.404        0.096
  YS02001586           JUNCTION        0.52          0.510        0.000
  YS02001590           JUNCTION        0.59          0.750        0.000
  YS02001593           JUNCTION        0.59          0.721        0.119
  YS02001596           JUNCTION        0.70          0.956        0.114
  YS02001600           JUNCTION        0.85          1.190        0.000
  YS02001601           JUNCTION        1.21          1.440        0.000
  YS02001602           JUNCTION        1.10          1.270        0.000
  YS02001605           JUNCTION        1.04          1.175        0.005
  YS02001607           JUNCTION        0.57          0.645        0.035
  YS02001610           JUNCTION        0.59          0.680        0.000
  YS02001613           JUNCTION        0.56          0.653        0.047
  YS02001616           JUNCTION        0.52          0.587        0.023
  YS02001619           JUNCTION        0.51          0.588        0.022
  YS02001622           JUNCTION        0.51          0.568        0.052
  YS02001625           JUNCTION        0.68          0.780        0.000
  YS02001629           JUNCTION        0.47          0.470        0.000
  YS02001633           JUNCTION        0.70          0.976        0.084
  YS02001641           JUNCTION        0.64          0.948        0.152
  YS02001644           JUNCTION        0.60          0.920        0.000
  YS02001647           JUNCTION        0.42          0.731        0.169
  YS02001649           JUNCTION        0.52          0.946        0.104
  YS02001652           JUNCTION        0.36          0.722        0.408
  YS02001655           JUNCTION        0.25          0.680        0.520
  YS02001658           JUNCTION        0.12          0.585        0.715
  YS02001748           JUNCTION        0.06          0.395        0.795
  YS02001751           JUNCTION        0.18          0.560        0.640
  YS02001754           JUNCTION        0.30          0.789        0.361
  YS02001757           JUNCTION        0.59          1.040        0.170
  YS02001759           JUNCTION        0.49          0.954        0.256
  YS02001762           JUNCTION        0.47          0.934        0.216
  YS02001765           JUNCTION        0.43          0.902        0.198
  YS02001767           JUNCTION        0.41          0.881        0.149
  YS02001770           JUNCTION        0.38          0.893        0.027
  YS02001774           JUNCTION        0.45          0.983        0.067
  YS02001779           JUNCTION        0.29          0.680        0.000
  YS02001783           JUNCTION        0.34          0.433        1.167
  YS02001784           JUNCTION        0.32          0.313        1.177
  YS02001786           JUNCTION        0.23          0.073        1.357
  YS02001882           JUNCTION        0.29          0.656        0.174
  YS02001884           JUNCTION        0.30          0.684        0.186
  YS02001887           JUNCTION        0.33          0.766        0.184
  YS02001890           JUNCTION        0.35          0.760        0.000
  YS02001895           JUNCTION        0.28          0.569        0.181
  YS02001898           JUNCTION        0.28          0.541        0.199
  YS02001901           JUNCTION        0.32          0.680        0.190
  YS02001904           JUNCTION        0.31          0.640        0.210
  YS02001907           JUNCTION        0.56          0.950        0.000
  YS02001910           JUNCTION        0.37          0.971        0.129
  YS02001915           JUNCTION        0.29          0.923        0.077
  YS02001918           JUNCTION        0.21          0.810        0.000
  YS02001920           JUNCTION        0.22          1.070        0.070
  YS02001923           JUNCTION        0.01          0.809        0.011
  YS02001926           JUNCTION        0.01          0.900        0.000
  YS02001929           JUNCTION        0.01          0.780        0.000
  YS02006553           JUNCTION        0.58          0.974        0.216
  YS02006556           JUNCTION        0.46          0.899        0.451
  YS02006558           JUNCTION        0.44          0.881        0.519
  YS02006561           JUNCTION        0.18          0.101        1.049
  YS02163301           JUNCTION        0.68          0.908        0.122
  YS02163601           JUNCTION        0.74          1.026        0.054
  YS02164001           JUNCTION        0.64          0.949        0.151
  
  
  *********************
  Node Flooding Summary
  *********************
  
  Flooding refers to all water that overflows a node, whether it ponds or not.
  --------------------------------------------------------------------------
                                                             Total   Maximum
                                 Maximum   Time of Max       Flood    Ponded
                        Hours       Rate    Occurrence      Volume     Depth
  Node                 Flooded       LPS   days hr:min    10^6 ltr    Meters
  --------------------------------------------------------------------------
  WS02006248              0.01      4.43      0  03:35       0.000     0.000
  WS02006249              1.09    105.98      0  02:09       0.272     0.000
  WS02006252              0.01    245.63      0  00:00       0.000     0.000
  WS02006256              1.38    315.82      0  01:55       0.482     0.000
  YS02001580              0.01     40.85      0  02:16       0.000     0.000
  YS02001586              0.29    214.37      0  02:26       0.115     0.000
  YS02001590              0.01      4.02      0  02:16       0.000     0.000
  YS02001600              0.01      2.22      0  02:16       0.000     0.000
  YS02001601              0.46    811.07      0  02:25       0.699     0.000
  YS02001602              0.36     61.96      0  02:27       0.072     0.000
  YS02001610              0.31    403.78      0  02:26       0.252     0.000
  YS02001625              0.29   1042.71      0  02:26       0.561     0.000
  YS02001629              0.04     34.53      0  02:23       0.003     0.000
  YS02001644              0.09    323.02      0  02:25       0.058     0.000
  YS02001779              0.05    211.52      0  02:19       0.006     0.000
  YS02001890              0.06     47.48      0  02:24       0.007     0.000
  YS02001907              0.17    961.20      0  02:23       0.345     0.000
  YS02001918              0.01     80.73      0  02:22       0.001     0.000
  YS02001926              0.01     76.09      0  02:22       0.000     0.000
  YS02001929              0.01    228.63      0  02:22       0.001     0.000
  
  
  **********************
  Storage Volume Summary
  **********************
  
  ------------------------------------------------------------------------------------------------
                         Average    Avg   Evap  Exfil     Maximum    Max    Time of Max    Maximum
                          Volume   Pcnt   Pcnt   Pcnt      Volume   Pcnt     Occurrence    Outflow
  Storage Unit           1000 m³   Full   Loss   Loss     1000 m³   Full    days hr:min        LPS
  ------------------------------------------------------------------------------------------------
  CC-storage               2.345   36.6    0.0    0.0       4.555   71.1       0  02:41    1783.53
  JK-storage               0.126   43.3    0.0    0.0       0.212   72.8       0  02:21    2300.00
  XR-storage               0.937   65.1    0.0    0.0       1.111   77.2       0  08:00     380.00
  
  
  ***********************
  Outfall Loading Summary
  ***********************
  
  -----------------------------------------------------------
                         Flow       Avg       Max       Total
                         Freq      Flow      Flow      Volume
  Outfall Node           Pcnt       LPS       LPS    10^6 ltr
  -----------------------------------------------------------
  CC-1                  29.05    683.00    683.00       3.533
  CC-2                  26.24    683.00    683.00       3.221
  JK-1                  11.95   1000.00   1000.00       1.645
  JK-2                   0.25   1000.00   1000.00       0.048
  WSC                   99.93    382.81    753.00       9.183
  -----------------------------------------------------------
  System                33.48   3748.81   3366.23      17.631
  
  
  ********************
  Link Flow Summary
  ********************
  
  -----------------------------------------------------------------------------
                                 Maximum  Time of Max   Maximum    Max/    Max/
                                  |Flow|   Occurrence   |Veloc|    Full    Full
  Link                 Type          LPS  days hr:min     m/sec    Flow   Depth
  -----------------------------------------------------------------------------
  1                    CONDUIT    753.00     0  02:51      3.08    0.26    0.35
  WS02001211WS02001212 CONDUIT    202.23     0  03:48      0.54    0.15    0.51
  WS02001212WS02001213 CONDUIT    204.24     0  03:49      1.04    0.32    0.36
  WS02001213WS02003059 CONDUIT    209.39     0  03:49      0.47    0.35    0.67
  WS02003059WS02003060 CONDUIT    216.43     0  03:50      0.67    0.14    0.59
  WS02003060WS02003069 CONDUIT    751.05     0  02:48      1.77    0.29    0.40
  WS02003066WSF200     CONDUIT    537.13     0  02:48      2.74    0.09    0.23
  WS02003067WS02003066 CONDUIT    537.10     0  02:48      1.21    0.17    0.42
  WS02003069WS02003072 CONDUIT    751.29     0  02:49      1.51    0.36    0.45
  WS02003072WS02003073 CONDUIT    751.23     0  02:50      1.60    1.62    0.43
  WS02004138WS02004139 CONDUIT    190.84     0  00:29      2.17    0.04    0.33
  WS02004139WS02001211 CONDUIT    193.78     0  03:20      0.54    0.24    0.47
  WS02004401WS02004402 CONDUIT    538.20     0  02:45      0.97    0.65    0.86
  WS02004402WS02004403 CONDUIT    538.15     0  02:47      0.97    0.77    0.88
  WS02004403WS02004404 CONDUIT    537.87     0  02:45      0.92    0.39    0.93
  WS02004404WS02004405 CONDUIT    538.00     0  02:45      1.08    5.27    0.96
  WS02004405WS02004406 CONDUIT    538.15     0  02:47      0.99    1.06    0.96
  WS02004406WS02004407 CONDUIT    537.77     0  02:46      1.04    0.24    0.63
  WS02004407WS02004409 CONDUIT    537.61     0  02:46      1.51    0.19    0.48
  WS02004409WS02004410 CONDUIT    537.47     0  02:46      0.98    0.70    0.67
  WS02004410WS02004411 CONDUIT    537.36     0  02:46      0.94    0.73    0.69
  WS02004411WS02004412 CONDUIT    537.27     0  02:47      0.92    0.76    0.69
  WS02004412WS02004413 CONDUIT    537.22     0  02:47      0.82    0.36    0.78
  WS02004413WS02003067 CONDUIT    537.07     0  02:47      1.11    0.23    0.59
  WS02006109WS02006110 CONDUIT    551.43     0  03:21      1.10    1.06    1.00
  WS02006110WS02006113 CONDUIT    560.69     0  03:11      1.35    0.51    0.78
  WS02006111WS02006112 CONDUIT    543.02     0  02:50      1.82    0.26    0.67
  WS02006112WS02006115 CONDUIT    548.40     0  02:46      0.78    0.32    0.87
  WS02006113WS02006111 CONDUIT    560.33     0  02:52      2.46    0.67    0.46
  WS02006115WS02006116 CONDUIT    539.76     0  02:46      0.97    0.69    0.76
  WS02006116WS02004401 CONDUIT    538.29     0  02:45      0.98    0.74    0.84
  WS02006228WS02006109 CONDUIT    548.87     0  03:21      1.09    2.40    1.00
  WS02006229WS02006228 CONDUIT    548.85     0  03:21      1.15    1.82    1.00
  WS02006230WS02006229 CONDUIT    547.96     0  03:21      1.42   12.19    1.00
  WS02006231WS02006230 CONDUIT    578.26     0  03:10      1.56    8.77    1.00
  WS02006232WS02006231 CONDUIT    570.58     0  03:10      1.49    1.20    1.00
  WS02006234WS02006232 CONDUIT    569.49     0  03:10      1.48    1.15    1.00
  WS02006235WS02006234 CONDUIT    565.73     0  03:10      1.47    5.97    1.00
  WS02006238WS02006235 CONDUIT    424.86     0  03:12      1.56    0.95    1.00
  WS02006239WS02006238 CONDUIT    424.32     0  03:12      1.11    1.36    1.00
  WS02006240WS02006239 CONDUIT    423.28     0  03:12      1.24    1.33    1.00
  WS02006242WS02006240 CONDUIT    421.22     0  03:12      1.12    1.67    1.00
  WS02006243WS02006242 CONDUIT    420.97     0  03:12      1.39    0.90    1.00
  WS02006245WS02006243 CONDUIT    421.14     0  03:12      1.45    1.25    1.00
  WS02006247WS02006245 CONDUIT    420.30     0  03:12      1.44    3.33    1.00
  WS02006248WS02006247 CONDUIT    419.73     0  03:12      1.45    0.91    1.00
  WS02006249WS02006248 CONDUIT    418.72     0  03:11      1.37    2.29    1.00
  WS02006251WS02006249 CONDUIT    458.97     0  00:00      1.99    1.32    1.00
  WS02006252WS02006251 CONDUIT    407.07     0  02:09     25.11    1.49    1.00
  WS02006256WS02006235 CONDUIT    289.22     0  01:54      4.23    3.06    1.00
  WSF200WS02003060     CONDUIT    537.22     0  02:48      1.76    0.12    0.32
  YS02001580YS02001583 CONDUIT     77.68     0  02:16      0.55    0.30    1.00
  YS02001583YS02001586 CONDUIT    135.94     0  02:16      0.55    0.21    1.00
  YS02001586YS02001590 CONDUIT    318.50     0  02:31      1.26    0.56    1.00
  YS02001590YS02001593 CONDUIT    318.20     0  02:31      1.13    2.00    1.00
  YS02001593YS02001596 CONDUIT    318.10     0  02:24      1.74    0.50    1.00
  YS02001596YS02001600 CONDUIT    318.12     0  02:31      1.24    0.62    1.00
  YS02001600YS02001601 CONDUIT    318.11     0  02:31      1.13    0.55    1.00
  YS02001601YS02001602 CONDUIT    492.52     0  02:15      1.74    1.78    1.00
  YS02001602YS02001605 CONDUIT    491.89     0  02:15      1.74   10.41    1.00
  YS02001605YS02001607 CONDUIT    492.02     0  02:15      1.74    2.70    1.00
  YS02001607YS02001610 CONDUIT    492.39     0  02:15      0.63    0.47    1.00
  YS02001610YS02001613 CONDUIT    493.30     0  02:15      0.63    0.57    1.00
  YS02001613YS02001616 CONDUIT    490.84     0  02:15      0.63    0.42    1.00
  YS02001616YS02001619 CONDUIT    492.18     0  02:16      0.65    0.85    1.00
  YS02001619YS02001622 CONDUIT    904.63     0  02:18      1.16    1.33    1.00
  YS02001622YS02001625 CONDUIT    904.31     0  02:18      1.15    0.48    1.00
  YS02001625YS02001629 CONDUIT    904.40     0  02:18      1.15    0.43    1.00
  YS02001629YS02163301 CONDUIT    906.69     0  02:18      1.15    1.12    1.00
  YS02001633YS02163601 CONDUIT   1278.36     0  02:19      1.63    1.34    1.00
  YS02001641YS02001644 CONDUIT   1279.02     0  02:19      1.63    4.13    1.00
  YS02001644YS02001647 CONDUIT   1612.88     0  02:19      2.07    0.95    1.00
  YS02001647YS02001649 CONDUIT   1612.56     0  02:19      2.21    0.85    1.00
  YS02001649YS02001757 CONDUIT   1774.55     0  02:20      2.26    1.08    1.00
  YS02001652YS02001649 CONDUIT    643.24     0  02:25      0.82    0.32    1.00
  YS02001655YS02001652 CONDUIT    641.61     0  02:25      1.23    0.31    1.00
  YS02001658YS02001655 CONDUIT    640.03     0  02:25      1.82    0.27    1.00
  YS02001661YS02001658 CONDUIT    638.19     0  02:25      2.16    0.25    0.97
  YS02001664YS02001661 CONDUIT    740.05     0  02:26      2.08    0.23    0.67
  YS02001745YS02001748 CONDUIT    492.88     0  02:22      1.95    0.19    0.85
  YS02001748YS02001751 CONDUIT    359.58     0  02:25      1.54    0.18    1.00
  YS02001751YS02001754 CONDUIT    359.25     0  02:25      1.37    0.17    1.00
  YS02001754YS02001757 CONDUIT    359.55     0  02:25      0.48    0.14    1.00
  YS02001757CaochengTiaoxuchi CONDUIT   2974.15     0  02:24      3.79    1.29    1.00
  YS02001759YS02001757 CONDUIT   1198.07     0  02:25      1.53    0.85    1.00
  YS02001762YS02001759 CONDUIT    683.94     0  02:26      0.87    0.79    1.00
  YS02001765YS02001762 CONDUIT    682.45     0  02:26      0.87    0.64    1.00
  YS02001767YS02001765 CONDUIT    682.89     0  02:26      0.87    0.86    1.00
  YS02001770YS02001767 CONDUIT    681.85     0  02:26      0.87    2.70    1.00
  YS02001774YS02001770 CONDUIT    262.56     0  02:19      0.33    0.17    1.00
  YS02001779YS02001774 CONDUIT    264.96     0  02:19      0.34    0.13    1.00
  YS02001783YS02001784 CONDUIT   1155.87     0  02:24      2.30    1.59    1.00
  YS02001784YS02001785 CONDUIT   1157.24     0  02:24      2.30    2.69    1.00
  YS02001786YS02001788 CONDUIT   1157.95     0  02:24      2.47    2.23    0.89
  YS02001788YS02001790 CONDUIT   1165.88     0  02:25      2.70    0.86    0.84
  YS02001790YS02001791 CONDUIT   1278.07     0  02:25      3.43    1.39    0.70
  YS02001791YS02001793 CONDUIT   1246.40     0  02:26      6.47    0.54    0.44
  YS02001793JiankangQianchi CONDUIT   1215.20     0  02:29      2.39    0.10    0.64
  YS02001882YS02001884 CONDUIT     27.04     0  02:19      0.12    0.03    1.00
  YS02001884YS02001887 CONDUIT     59.51     0  02:19      0.08    0.08    1.00
  YS02001887YS02001890 CONDUIT    551.28     0  02:25      0.70    0.94    1.00
  YS02001890YS02001895 CONDUIT    511.25     0  02:25      0.65    0.24    1.00
  YS02001895YS02001898 CONDUIT    511.47     0  02:25      0.65    0.89    1.00
  YS02001898YS02001901 CONDUIT    511.89     0  02:26      0.65    0.33    1.00
  YS02001901YS02001904 CONDUIT    510.98     0  02:26      0.65    0.79    1.00
  YS02001904YS02001907 CONDUIT    511.07     0  02:26      0.65    0.18    1.00
  YS02001907YS02006553 CONDUIT    815.39     0  02:34      0.91    0.96    1.00
  YS02001910YS02001907 CONDUIT    982.07     0  02:23      1.25    0.55    1.00
  YS02001915YS02001910 CONDUIT    981.41     0  02:23      1.25    0.49    1.00
  YS02001918YS02001915 CONDUIT    452.97     0  02:23      0.58    0.25    1.00
  YS02001920YS02001918 CONDUIT    451.28     0  02:23      0.65    0.44    1.00
  YS02001923YS02001920 CONDUIT    447.32     0  02:23      0.71    0.20    1.00
  YS02001926YS02001923 CONDUIT    412.03     0  02:23      0.97    0.59    1.00
  YS02001929YS02001926 CONDUIT    408.24     0  02:23      1.12    0.19    1.00
  YS02006553YS02006556 CONDUIT    816.48     0  02:34      1.04    0.70    1.00
  YS02006556YS02006558 CONDUIT    818.80     0  02:34      1.04    0.65    1.00
  YS02006558YS02006561 CONDUIT   1156.48     0  02:24      4.09    2.56    1.00
  YS02006561YS02001783 CONDUIT   1155.88     0  02:24      2.30    0.60    1.00
  YS02163301YS02001633 CONDUIT    906.45     0  02:18      1.15    0.85    1.00
  YS02163601YS02164001 CONDUIT   1278.68     0  02:19      1.63    1.13    1.00
  YS02164001YS02001641 CONDUIT   1278.21     0  02:19      1.63    1.75    1.00
  CC-R1                PUMP       683.00     0  00:00              1.00
  CC-R2                PUMP       683.00     0  00:00              1.00
  CC-S1                PUMP       200.00     0  00:00              1.00
  CC-S2                PUMP       200.00     0  00:00              1.00
  JK-R1                PUMP      1000.00     0  00:00              1.00
  JK-R2                PUMP      1000.00     0  00:00              1.00
  JK-S                 PUMP       300.00     0  00:00              1.00
  XR-1                 PUMP        95.00     0  00:00              1.00
  XR-2                 PUMP        95.00     0  00:00              1.00
  XR-3                 PUMP        95.00     0  00:00              1.00
  XR-4                 PUMP        95.00     0  00:00              1.00
  
  
  ***************************
  Flow Classification Summary
  ***************************
  
  -------------------------------------------------------------------------------------
                      Adjusted    ---------- Fraction of Time in Flow Class ---------- 
                       /Actual         Up    Down  Sub   Sup   Up    Down  Norm  Inlet 
  Conduit               Length    Dry  Dry   Dry   Crit  Crit  Crit  Crit  Ltd   Ctrl  
  -------------------------------------------------------------------------------------
  1                       1.00   0.00  0.00  0.00  0.00  1.00  0.00  0.00  0.13  0.00
  WS02001211WS02001212    1.00   0.00  0.02  0.00  0.98  0.00  0.00  0.00  0.00  0.00
  WS02001212WS02001213    1.00   0.02  0.00  0.00  0.21  0.00  0.77  0.00  0.00  0.00
  WS02001213WS02003059    1.00   0.00  0.01  0.00  0.99  0.00  0.00  0.00  0.00  0.00
  WS02003059WS02003060    1.00   0.00  0.00  0.00  1.00  0.00  0.00  0.00  0.03  0.00
  WS02003060WS02003069    1.00   0.00  0.00  0.00  0.98  0.02  0.00  0.00  0.73  0.00
  WS02003066WSF200        1.00   0.13  0.00  0.00  0.00  0.87  0.00  0.00  0.72  0.00
  WS02003067WS02003066    1.00   0.10  0.02  0.00  0.88  0.00  0.00  0.00  0.00  0.00
  WS02003069WS02003072    1.00   0.00  0.00  0.00  1.00  0.00  0.00  0.00  0.76  0.00
  WS02003072WS02003073    1.00   0.00  0.00  0.00  0.00  0.00  0.00  1.00  0.00  0.00
  WS02004138WS02004139    1.00   0.00  0.00  0.00  0.97  0.01  0.00  0.02  0.98  0.00
  WS02004139WS02001211    1.00   0.00  0.00  0.00  0.99  0.00  0.00  0.00  0.00  0.00
  WS02004401WS02004402    1.00   0.02  0.00  0.00  0.98  0.00  0.00  0.00  0.00  0.00
  WS02004402WS02004403    1.00   0.02  0.00  0.00  0.97  0.00  0.00  0.00  0.00  0.00
  WS02004403WS02004404    1.00   0.00  0.03  0.00  0.97  0.00  0.00  0.00  0.00  0.00
  WS02004404WS02004405    1.00   0.00  0.00  0.00  1.00  0.00  0.00  0.00  0.00  0.00
  WS02004405WS02004406    1.00   0.00  0.00  0.00  1.00  0.00  0.00  0.00  0.00  0.00
  WS02004406WS02004407    1.00   0.00  0.05  0.00  0.95  0.00  0.00  0.00  0.00  0.00
  WS02004407WS02004409    1.00   0.05  0.00  0.00  0.94  0.01  0.00  0.00  0.94  0.00
  WS02004409WS02004410    1.00   0.05  0.00  0.00  0.95  0.00  0.00  0.00  0.03  0.00
  WS02004410WS02004411    1.00   0.05  0.00  0.00  0.95  0.00  0.00  0.00  0.01  0.00
  WS02004411WS02004412    1.00   0.05  0.00  0.00  0.95  0.00  0.00  0.00  0.00  0.00
  WS02004412WS02004413    1.00   0.05  0.00  0.00  0.94  0.00  0.00  0.00  0.01  0.00
  WS02004413WS02003067    1.00   0.06  0.04  0.00  0.00  0.00  0.90  0.00  0.00  0.00
  WS02006109WS02006110    1.00   0.00  0.01  0.00  0.98  0.00  0.01  0.00  0.00  0.00
  WS02006110WS02006113    1.00   0.01  0.01  0.00  0.98  0.00  0.00  0.00  0.00  0.00
  WS02006111WS02006112    1.00   0.02  0.00  0.00  0.98  0.00  0.00  0.00  0.98  0.00
  WS02006112WS02006115    1.00   0.02  0.00  0.00  0.97  0.00  0.00  0.00  0.00  0.00
  WS02006113WS02006111    1.00   0.02  0.00  0.00  0.00  0.98  0.00  0.00  0.08  0.00
  WS02006115WS02006116    1.00   0.02  0.00  0.00  0.97  0.00  0.00  0.01  0.00  0.00
  WS02006116WS02004401    1.00   0.02  0.00  0.00  0.98  0.00  0.00  0.00  0.00  0.00
  WS02006228WS02006109    1.00   0.00  0.00  0.00  1.00  0.00  0.00  0.00  0.00  0.00
  WS02006229WS02006228    1.00   0.00  0.00  0.00  0.99  0.00  0.00  0.01  0.00  0.00
  WS02006230WS02006229    1.00   0.00  0.00  0.00  0.99  0.00  0.00  0.01  0.00  0.00
  WS02006231WS02006230    1.00   0.00  0.00  0.00  0.20  0.00  0.80  0.00  0.00  0.00
  WS02006232WS02006231    1.00   0.00  0.00  0.00  0.99  0.00  0.01  0.00  0.00  0.00
  WS02006234WS02006232    1.00   0.00  0.00  0.00  1.00  0.00  0.00  0.00  0.45  0.00
  WS02006235WS02006234    1.00   0.00  0.00  0.00  0.51  0.00  0.49  0.00  0.00  0.00
  WS02006238WS02006235    1.00   0.00  0.00  0.00  1.00  0.00  0.00  0.00  0.00  0.00
  WS02006239WS02006238    1.00   0.00  0.00  0.00  1.00  0.00  0.00  0.00  0.55  0.00
  WS02006240WS02006239    1.00   0.00  0.00  0.00  0.35  0.00  0.00  0.65  0.01  0.00
  WS02006242WS02006240    1.00   0.00  0.00  0.00  0.99  0.00  0.00  0.00  0.00  0.00
  WS02006243WS02006242    1.00   0.00  0.00  0.00  0.99  0.00  0.00  0.01  0.74  0.00
  WS02006245WS02006243    1.00   0.00  0.00  0.00  0.44  0.00  0.00  0.56  0.01  0.00
  WS02006247WS02006245    1.00   0.00  0.00  0.00  0.99  0.00  0.00  0.01  0.00  0.00
  WS02006248WS02006247    1.00   0.00  0.00  0.00  0.99  0.00  0.00  0.01  0.22  0.00
  WS02006249WS02006248    1.00   0.00  0.00  0.00  0.30  0.00  0.70  0.00  0.00  0.00
  WS02006251WS02006249    1.00   0.00  0.00  0.00  0.99  0.01  0.00  0.00  0.73  0.00
  WS02006252WS02006251    1.00   0.00  0.74  0.00  0.14  0.00  0.12  0.00  0.00  0.00
  WS02006256WS02006235    1.00   0.00  0.00  0.00  1.00  0.00  0.00  0.00  0.00  0.00
  WSF200WS02003060        1.00   0.00  0.13  0.00  0.68  0.19  0.00  0.00  0.67  0.00
  YS02001580YS02001583    1.00   0.28  0.56  0.00  0.17  0.00  0.00  0.00  0.65  0.00
  YS02001583YS02001586    1.00   0.48  0.30  0.00  0.21  0.00  0.00  0.00  0.65  0.00
  YS02001586YS02001590    1.00   0.13  0.00  0.00  0.40  0.04  0.00  0.43  0.36  0.00
  YS02001590YS02001593    1.00   0.13  0.01  0.00  0.09  0.00  0.78  0.00  0.00  0.00
  YS02001593YS02001596    1.00   0.13  0.00  0.00  0.11  0.01  0.00  0.75  0.02  0.00
  YS02001596YS02001600    1.00   0.14  0.00  0.00  0.18  0.02  0.00  0.67  0.05  0.00
  YS02001600YS02001601    1.00   0.13  0.01  0.00  0.86  0.00  0.00  0.00  0.62  0.00
  YS02001601YS02001602    1.00   0.13  0.01  0.00  0.87  0.00  0.00  0.00  0.00  0.00
  YS02001602YS02001605    1.00   0.13  0.00  0.00  0.86  0.00  0.00  0.00  0.00  0.00
  YS02001605YS02001607    1.00   0.14  0.00  0.00  0.86  0.00  0.00  0.00  0.00  0.00
  YS02001607YS02001610    1.00   0.13  0.01  0.00  0.86  0.00  0.00  0.00  0.01  0.00
  YS02001610YS02001613    1.00   0.13  0.00  0.00  0.87  0.00  0.00  0.00  0.00  0.00
  YS02001613YS02001616    1.00   0.13  0.00  0.00  0.87  0.00  0.00  0.00  0.00  0.00
  YS02001616YS02001619    1.00   0.13  0.00  0.00  0.87  0.00  0.00  0.00  0.00  0.00
  YS02001619YS02001622    1.00   0.13  0.00  0.00  0.87  0.00  0.00  0.00  0.33  0.00
  YS02001622YS02001625    1.00   0.13  0.00  0.00  0.87  0.00  0.00  0.00  0.04  0.00
  YS02001625YS02001629    1.00   0.13  0.05  0.00  0.13  0.00  0.69  0.00  0.00  0.00
  YS02001629YS02163301    1.00   0.15  0.01  0.00  0.84  0.00  0.00  0.00  0.00  0.00
  YS02001633YS02163601    1.00   0.00  0.01  0.00  0.99  0.00  0.00  0.00  0.15  0.00
  YS02001641YS02001644    1.00   0.00  0.01  0.00  0.99  0.00  0.00  0.00  0.00  0.00
  YS02001644YS02001647    1.00   0.00  0.17  0.00  0.83  0.00  0.00  0.00  0.00  0.00
  YS02001647YS02001649    1.00   0.00  0.17  0.00  0.54  0.29  0.00  0.00  0.58  0.00
  YS02001649YS02001757    1.00   0.00  0.00  0.00  0.69  0.31  0.00  0.00  0.51  0.00
  YS02001652YS02001649    1.00   0.00  0.00  0.00  0.96  0.04  0.00  0.00  0.77  0.00
  YS02001655YS02001652    1.00   0.00  0.00  0.00  0.15  0.02  0.00  0.83  0.05  0.00
  YS02001658YS02001655    1.00   0.00  0.14  0.00  0.64  0.22  0.00  0.00  0.72  0.00
  YS02001661YS02001658    1.00   0.14  0.00  0.00  0.51  0.35  0.00  0.00  0.73  0.00
  YS02001664YS02001661    1.00   0.13  0.00  0.00  0.78  0.10  0.00  0.00  0.87  0.00
  YS02001745YS02001748    1.00   0.00  0.00  0.00  0.07  0.01  0.00  0.93  0.04  0.00
  YS02001748YS02001751    1.00   0.00  0.00  0.00  0.81  0.19  0.00  0.00  0.76  0.00
  YS02001751YS02001754    1.00   0.00  0.00  0.00  0.13  0.00  0.00  0.87  0.03  0.00
  YS02001754YS02001757    1.00   0.00  0.00  0.00  1.00  0.00  0.00  0.00  0.86  0.00
  YS02001757CaochengTiaoxuchi    1.00   0.00  0.00  0.00  1.00  0.00  0.00  0.00  0.85  0.00
  YS02001759YS02001757    1.00   0.00  0.00  0.00  1.00  0.00  0.00  0.00  0.63  0.00
  YS02001762YS02001759    1.00   0.00  0.00  0.00  1.00  0.00  0.00  0.00  0.05  0.00
  YS02001765YS02001762    1.00   0.00  0.00  0.00  1.00  0.00  0.00  0.00  0.74  0.00
  YS02001767YS02001765    1.00   0.00  0.00  0.00  1.00  0.00  0.00  0.00  0.00  0.00
  YS02001770YS02001767    1.00   0.00  0.00  0.00  1.00  0.00  0.00  0.00  0.00  0.00
  YS02001774YS02001770    1.00   0.00  0.13  0.00  0.61  0.00  0.26  0.00  0.03  0.00
  YS02001779YS02001774    1.00   0.00  0.00  0.00  1.00  0.00  0.00  0.00  0.78  0.00
  YS02001783YS02001784    1.00   0.00  0.18  0.00  0.82  0.00  0.00  0.00  0.57  0.00
  YS02001784YS02001785    1.00   0.00  0.00  0.00  1.00  0.00  0.00  0.00  0.17  0.00
  YS02001786YS02001788    1.00   0.00  0.00  0.00  0.79  0.21  0.00  0.00  0.00  0.00
  YS02001788YS02001790    1.00   0.00  0.00  0.00  0.20  0.80  0.00  0.00  0.82  0.00
  YS02001790YS02001791    1.00   0.00  0.00  0.00  0.01  0.99  0.00  0.00  0.17  0.00
  YS02001791YS02001793    1.00   0.00  0.00  0.00  0.00  1.00  0.00  0.00  0.01  0.00
  YS02001793JiankangQianchi    1.00   0.00  0.00  0.00  1.00  0.00  0.00  0.00  0.97  0.00
  YS02001882YS02001884    1.00   0.15  0.01  0.00  0.84  0.00  0.00  0.00  0.00  0.00
  YS02001884YS02001887    1.00   0.06  0.05  0.00  0.89  0.00  0.00  0.00  0.00  0.00
  YS02001887YS02001890    1.00   0.00  0.00  0.00  0.97  0.00  0.03  0.00  0.00  0.00
  YS02001890YS02001895    1.00   0.00  0.16  0.00  0.83  0.00  0.00  0.00  0.00  0.00
  YS02001895YS02001898    1.00   0.17  0.00  0.00  0.81  0.00  0.02  0.00  0.00  0.00
  YS02001898YS02001901    1.00   0.17  0.00  0.00  0.83  0.00  0.00  0.00  0.01  0.00
  YS02001901YS02001904    1.00   0.17  0.00  0.00  0.83  0.00  0.00  0.00  0.00  0.00
  YS02001904YS02001907    1.00   0.00  0.16  0.00  0.83  0.00  0.00  0.00  0.00  0.00
  YS02001907YS02006553    1.00   0.00  0.02  0.00  0.98  0.00  0.00  0.00  0.00  0.00
  YS02001910YS02001907    1.00   0.00  0.00  0.00  0.97  0.00  0.00  0.03  0.12  0.00
  YS02001915YS02001910    1.00   0.00  0.00  0.00  0.97  0.03  0.00  0.00  0.16  0.00
  YS02001918YS02001915    1.00   0.00  0.01  0.00  0.98  0.02  0.00  0.00  0.78  0.00
  YS02001920YS02001918    1.00   0.00  0.01  0.00  0.99  0.00  0.00  0.00  0.00  0.00
  YS02001923YS02001920    1.00   0.00  0.00  0.00  1.00  0.00  0.00  0.00  0.95  0.00
  YS02001926YS02001923    1.00   0.00  0.07  0.00  0.04  0.00  0.89  0.00  0.00  0.00
  YS02001929YS02001926    1.00   0.00  0.13  0.00  0.87  0.00  0.00  0.00  0.84  0.00
  YS02006553YS02006556    1.00   0.01  0.00  0.00  0.99  0.00  0.00  0.00  0.03  0.00
  YS02006556YS02006558    1.00   0.00  0.00  0.00  1.00  0.00  0.00  0.00  0.00  0.00
  YS02006558YS02006561    1.00   0.18  0.00  0.00  0.03  0.79  0.00  0.00  0.18  0.00
  YS02006561YS02001783    1.00   0.18  0.00  0.00  0.06  0.75  0.00  0.00  0.71  0.00
  YS02163301YS02001633    1.00   0.00  0.15  0.00  0.85  0.00  0.00  0.00  0.00  0.00
  YS02163601YS02164001    1.00   0.00  0.08  0.00  0.92  0.00  0.00  0.00  0.00  0.00
  YS02164001YS02001641    1.00   0.01  0.07  0.00  0.92  0.00  0.00  0.00  0.05  0.00
  
  
  *************************
  Conduit Surcharge Summary
  *************************
  
  ----------------------------------------------------------------------------
                                                           Hours        Hours 
                         --------- Hours Full --------   Above Full   Capacity
  Conduit                Both Ends  Upstream  Dnstream   Normal Flow   Limited
  ----------------------------------------------------------------------------
  WS02003072WS02003073        0.01      0.01      0.01      1.65         0.01
  WS02004404WS02004405        0.01      0.01      0.01      1.91         0.01
  WS02004405WS02004406        0.01      0.01      0.01      0.96         0.01
  WS02006109WS02006110        1.01      1.01      1.56      1.06         0.01
  WS02006110WS02006113        0.01      0.01      1.52      0.01         0.01
  WS02006111WS02006112        0.01      0.01      1.61      0.01         0.01
  WS02006112WS02006115        0.01      0.01      1.00      0.01         0.01
  WS02006228WS02006109        1.51      1.56      1.51      1.71         1.51
  WS02006229WS02006228        1.50      1.52      1.50      1.64         1.49
  WS02006230WS02006229        1.60      1.62      1.60      2.23         1.60
  WS02006231WS02006230        1.02      1.02      1.11      2.04         0.01
  WS02006232WS02006231        1.08      1.08      1.57      1.12         0.01
  WS02006234WS02006232        1.47      1.47      1.57      1.11         1.10
  WS02006235WS02006234        1.35      1.35      1.50      1.97         0.01
  WS02006238WS02006235        1.52      1.52      1.57      0.01         0.01
  WS02006239WS02006238        1.50      1.51      1.53      1.48         1.27
  WS02006240WS02006239        1.44      1.46      1.44      1.48         1.18
  WS02006242WS02006240        1.45      1.45      1.48      1.52         0.01
  WS02006243WS02006242        1.46      1.46      1.47      0.01         0.03
  WS02006245WS02006243        1.45      1.45      1.46      0.46         0.58
  WS02006247WS02006245        1.45      1.45      1.45      1.79         1.45
  WS02006248WS02006247        1.45      1.45      1.45      0.01         0.03
  WS02006249WS02006248        1.44      1.44      1.44      1.77         0.01
  WS02006251WS02006249        1.44      1.44      1.44      1.52         1.40
  WS02006252WS02006251        1.59      1.59      1.59      1.59         0.01
  WS02006256WS02006235        1.98      2.00      3.61      1.38         0.01
  YS02001580YS02001583        0.40      0.40      0.45      0.01         0.01
  YS02001583YS02001586        0.41      0.41      0.52      0.01         0.01
  YS02001586YS02001590        0.52      0.52      0.59      0.01         0.01
  YS02001590YS02001593        0.59      0.59      0.61      0.60         0.01
  YS02001593YS02001596        0.60      0.60      0.70      0.01         0.01
  YS02001596YS02001600        0.75      0.75      0.85      0.01         0.01
  YS02001600YS02001601        0.92      0.92      1.21      0.01         0.01
  YS02001601YS02001602        1.10      1.10      1.26      0.86         0.01
  YS02001602YS02001605        1.04      1.04      1.10      2.14         0.01
  YS02001605YS02001607        1.00      1.04      1.00      1.18         1.00
  YS02001607YS02001610        0.57      0.57      0.59      0.01         0.01
  YS02001610YS02001613        0.56      0.56      0.59      0.01         0.01
  YS02001613YS02001616        0.52      0.52      0.56      0.01         0.01
  YS02001616YS02001619        0.51      0.51      0.52      0.01         0.01
  YS02001619YS02001622        0.51      0.51      0.51      0.60         0.48
  YS02001622YS02001625        0.51      0.51      0.68      0.01         0.01
  YS02001625YS02001629        0.47      0.47      0.68      0.01         0.01
  YS02001629YS02163301        0.67      0.67      0.68      0.08         0.13
  YS02001633YS02163601        0.70      0.70      0.74      0.28         0.27
  YS02001641YS02001644        0.60      0.64      0.60      1.31         0.60
  YS02001644YS02001647        0.42      0.42      0.60      0.01         0.01
  YS02001647YS02001649        0.42      0.42      0.52      0.01         0.01
  YS02001649YS02001757        0.52      0.52      0.59      0.05         0.05
  YS02001652YS02001649        0.38      0.38      0.52      0.01         0.01
  YS02001655YS02001652        0.25      0.25      0.36      0.01         0.01
  YS02001658YS02001655        0.12      0.12      0.25      0.01         0.01
  YS02001661YS02001658        0.01      0.01      0.12      0.01         0.01
  YS02001664YS02001661        0.01      0.01      0.01      0.01         0.01
  YS02001745YS02001748        0.01      0.01      0.06      0.01         0.01
  YS02001748YS02001751        0.09      0.09      0.18      0.01         0.01
  YS02001751YS02001754        0.18      0.18      0.30      0.01         0.01
  YS02001754YS02001757        0.33      0.33      0.59      0.01         0.01
  YS02001757CaochengTiaoxuchi        0.59      0.59      1.22      0.21         0.21
  YS02001759YS02001757        0.49      0.49      0.59      0.01         0.01
  YS02001762YS02001759        0.47      0.47      0.49      0.01         0.01
  YS02001765YS02001762        0.43      0.43      0.47      0.01         0.01
  YS02001767YS02001765        0.41      0.41      0.43      0.01         0.01
  YS02001770YS02001767        0.40      0.40      0.41      0.28         0.25
  YS02001774YS02001770        0.38      0.38      0.45      0.01         0.01
  YS02001779YS02001774        0.29      0.29      0.45      0.01         0.01
  YS02001783YS02001784        0.32      0.34      0.32      0.49         0.32
  YS02001784YS02001785        0.23      0.32      0.23      0.71         0.23
  YS02001786YS02001788        0.01      0.23      0.01      0.60         0.01
  YS02001790YS02001791        0.01      0.01      0.01      0.31         0.01
  YS02001793JiankangQianchi        0.01      0.01      7.67      0.01         0.01
  YS02001882YS02001884        0.29      0.29      0.30      0.01         0.01
  YS02001884YS02001887        0.32      0.32      0.33      0.01         0.01
  YS02001887YS02001890        0.35      0.35      0.36      0.01         0.01
  YS02001890YS02001895        0.28      0.28      0.37      0.01         0.01
  YS02001895YS02001898        0.28      0.28      0.28      0.01         0.01
  YS02001898YS02001901        0.28      0.28      0.32      0.01         0.01
  YS02001901YS02001904        0.31      0.31      0.32      0.01         0.01
  YS02001904YS02001907        0.31      0.31      0.58      0.01         0.01
  YS02001907YS02006553        0.72      0.72      0.79      0.01         0.01
  YS02001910YS02001907        0.37      0.37      0.56      0.01         0.01
  YS02001915YS02001910        0.29      0.29      0.37      0.01         0.01
  YS02001918YS02001915        0.21      0.21      0.29      0.01         0.01
  YS02001920YS02001918        0.21      0.21      0.22      0.01         0.01
  YS02001923YS02001920        0.17      0.17      0.22      0.01         0.01
  YS02001926YS02001923        0.01      0.01      0.01      0.01         0.01
  YS02001929YS02001926        0.01      0.01      0.01      0.01         0.01
  YS02006553YS02006556        0.46      0.46      0.58      0.01         0.01
  YS02006556YS02006558        0.52      0.52      0.60      0.01         0.01
  YS02006558YS02006561        0.24      0.44      0.24      0.66         0.24
  YS02006561YS02001783        0.18      0.18      0.34      0.01         0.01
  YS02163301YS02001633        0.68      0.68      0.72      0.01         0.01
  YS02163601YS02164001        0.64      0.64      0.74      0.07         0.01
  YS02164001YS02001641        0.64      0.64      0.64      0.59         0.51
  
  
  ***************
  Pumping Summary
  ***************
  
  ---------------------------------------------------------------------------------------------------------
                                                  Min       Avg       Max     Total     Power    % Time Off
                        Percent   Number of      Flow      Flow      Flow    Volume     Usage    Pump Curve
  Pump                 Utilized   Start-Ups       LPS       LPS       LPS  10^6 ltr     Kw-hr    Low   High
  ---------------------------------------------------------------------------------------------------------
  CC-R1                   17.95          14      0.00    683.00    683.00     3.531     64.91    0.0   25.9
  CC-R2                   16.37          14      0.00    683.00    683.00     3.219     59.16    0.0   28.4
  CC-S1                   22.90          14      0.00    200.00    200.00     1.319      7.75    0.0    0.0
  CC-S2                   19.84          14      0.00    200.00    200.00     1.143      6.69    0.0    0.0
  JK-R1                    5.70           9      0.00   1000.00   1000.00     1.642     19.24    0.0    0.0
  JK-R2                    0.16           1      0.00   1000.00   1000.00     0.047      0.36    0.0    0.0
  JK-S                    17.21          10      0.00    300.00    300.00     1.487     22.54    0.0    0.0
  XR-1                    97.91           2      0.00     95.00     95.00     2.679      9.60    0.0    0.0
  XR-2                    93.94           2      0.00     95.00     95.00     2.570      8.76    0.0    0.0
  XR-3                     0.00           1      0.00     95.00     95.00     0.000      0.00    0.0    0.0
  XR-4                     0.00           1      0.00     95.00     95.00     0.000      0.00    0.0    0.0
  

  Analysis begun on:  Wed Nov  5 16:31:45 2025
  Analysis ended on:  Wed Nov  5 16:31:48 2025
  Total elapsed time: 00:00:03