
  EPA STORM WATER MANAGEMENT MODEL - VERSION 5.2 (Build 5.2.4)
  PYSWMM TOOLKIT API - VERSION v1.0 (2023-11-27)
  ------------------------------------------------------------

  WARNING 04: minimum elevation drop used for Conduit WS02004404WS02004405
  WARNING 03: negative offset ignored for Link YS02001904YS02001907
  
  ****************
  Analysis Options
  ****************
  Flow Units ............... LPS
  Process Models:
    Rainfall/Runoff ........ YES
    RDII ................... NO
    Snowmelt ............... NO
    Groundwater ............ NO
    Flow Routing ........... YES
    Ponding Allowed ........ NO
    Water Quality .......... NO
  Infiltration Method ...... HORTON
  Flow Routing Method ...... DYNWAVE
  Surcharge Method ......... EXTRAN
  Starting Date ............ 08/28/2015 08:00:00
  Ending Date .............. 08/28/2015 16:00:00
  Antecedent Dry Days ...... 8.0
  Report Time Step ......... 00:01:00
  Wet Time Step ............ 00:01:00
  Dry Time Step ............ 00:01:00
  Routing Time Step ........ 30.00 sec
  Variable Time Step ....... YES
  Maximum Trials ........... 8
  Number of Threads ........ 4
  Head Tolerance ........... 0.001500 m
  
  
  **************************        Volume         Depth
  Runoff Quantity Continuity     hectare-m            mm
  **************************     ---------       -------
  Initial LID Storage ......         0.049         1.488
  Total Precipitation ......         2.045        61.641
  Evaporation Loss .........         0.000         0.000
  Infiltration Loss ........         0.078         2.360
  Surface Runoff ...........         1.510        45.520
  Final Storage ............         0.507        15.277
  Continuity Error (%) .....        -0.043
  
  
  **************************        Volume        Volume
  Flow Routing Continuity        hectare-m      10^6 ltr
  **************************     ---------     ---------
  Dry Weather Inflow .......         0.602         6.020
  Wet Weather Inflow .......         1.510        15.098
  Groundwater Inflow .......         0.000         0.000
  RDII Inflow ..............         0.000         0.000
  External Inflow ..........         0.105         1.045
  External Outflow .........         1.843        18.429
  Flooding Loss ............         0.349         3.490
  Evaporation Loss .........         0.000         0.000
  Exfiltration Loss ........         0.000         0.000
  Initial Stored Volume ....         0.303         3.031
  Final Stored Volume ......         0.333         3.332
  Continuity Error (%) .....        -0.228
  
  
  *************************
  Highest Continuity Errors
  *************************
  Node YS02001884 (5.16%)
  Node YS02001583 (-4.90%)
  Node YS02001774 (1.13%)
  Node WS02006256 (-1.08%)
  
  
  ***************************
  Time-Step Critical Elements
  ***************************
  Link WS02004404WS02004405 (26.25%)
  Link WS02006238WS02006235 (17.68%)
  Link WS02006252WS02006251 (15.27%)
  Link YS02001791YS02001793 (10.59%)
  Link WS02006235WS02006234 (8.49%)
  
  
  ********************************
  Highest Flow Instability Indexes
  ********************************
  Link WS02006113WS02006111 (30)
  Link WS02006252WS02006251 (21)
  Link WS02006111WS02006112 (19)
  Link WS02006238WS02006235 (18)
  Link YS02006558YS02006561 (16)
  
  
  *********************************
  Most Frequent Nonconverging Nodes
  *********************************
  Node CC-1 (15.42%)
  Node CC-2 (15.42%)
  Node JK-1 (15.42%)
  Node JK-2 (15.42%)
  Node WSC (15.42%)
  
  
  *************************
  Routing Time Step Summary
  *************************
  Minimum Time Step           :     0.00 sec
  Average Time Step           :     3.19 sec
  Maximum Time Step           :     7.04 sec
  % of Time in Steady State   :     0.00
  Average Iterations per Step :     3.33
  % of Steps Not Converging   :    15.42
  Time Step Frequencies       :
     30.000 - 13.228 sec      :     0.00 %
     13.228 -  5.833 sec      :    21.94 %
      5.833 -  2.572 sec      :    31.89 %
      2.572 -  1.134 sec      :    24.00 %
      1.134 -  0.500 sec      :    22.17 %
  
  
  ***************************
  Subcatchment Runoff Summary
  ***************************
  
  ------------------------------------------------------------------------------------------------------------------------------
                            Total      Total      Total      Total     Imperv       Perv      Total       Total     Peak  Runoff
                           Precip      Runon       Evap      Infil     Runoff     Runoff     Runoff      Runoff   Runoff   Coeff
  Subcatchment                 mm         mm         mm         mm         mm         mm         mm    10^6 ltr      LPS
  ------------------------------------------------------------------------------------------------------------------------------
  sub60                     61.64       0.00       0.00       1.39      40.94       4.32      45.26        0.59   405.18   0.734
  sub61                     61.64       0.00       0.00       2.13      40.90       6.43      47.34        0.87   593.03   0.768
  sub62                     61.64       0.00       0.00       0.94      43.60       2.94      46.54        1.28   816.60   0.755
  sub63                     61.64       0.00       0.00       3.94      35.03      10.70      45.73        1.04   685.05   0.742
  sub64                     61.64       0.00       0.00       1.89      39.89       5.32      45.21        1.09   672.21   0.733
  sub65                     61.64       0.00       0.00       1.73      43.05       4.85      47.90        1.32   786.63   0.777
  sub66                     61.64       0.00       0.00       4.64      33.87       9.54      43.41        2.02  1054.03   0.704
  sub67                     61.64       0.00       0.00       0.93      44.70       3.04      47.75        0.89   621.31   0.775
  sub68                     61.64       0.00       0.00       1.64      39.48       4.94      44.42        1.22   812.12   0.721
  sub69                     61.64       0.00       0.00       1.51      41.44       5.81      47.25        1.75  1016.14   0.767
  sub70                     61.64       0.00       0.00       5.14      33.20      12.02      45.22        1.31   610.67   0.734
  sub71                     61.64       0.00       0.00       0.87      39.61       2.65      42.26        1.11   676.89   0.686
  sub72                     61.64       0.00       0.00       0.83      42.78       2.47      45.25        0.62   351.01   0.734
  

  ***********************
  LID Performance Summary
  ***********************

  --------------------------------------------------------------------------------------------------------------------
                                         Total      Evap     Infil   Surface    Drain    Initial     Final  Continuity
                                        Inflow      Loss      Loss   Outflow   Outflow   Storage   Storage       Error
  Subcatchment      LID Control             mm        mm        mm        mm        mm        mm        mm           %
  --------------------------------------------------------------------------------------------------------------------
  sub60             GreenRoof            61.64      0.00      0.00      0.00      0.00      7.05     68.78       -0.12
  sub61             GreenRoof            61.64      0.00      0.00      0.00      0.00      7.05     68.78       -0.12
  sub62             GreenRoof            61.64      0.00      0.00      0.00      0.00      7.05     68.78       -0.12
  sub63             GreenRoof            61.64      0.00      0.00      0.00      0.00      7.05     68.78       -0.12
  sub64             GreenRoof            61.64      0.00      0.00      0.00      0.00      7.05     68.78       -0.12
  sub65             GreenRoof            61.64      0.00      0.00      0.00      0.00      7.05     68.78       -0.12
  sub66             GreenRoof            61.64      0.00      0.00      0.00      0.00      7.05     68.78       -0.12
  sub67             GreenRoof            61.64      0.00      0.00      0.00      0.00      7.05     68.78       -0.12
  sub68             GreenRoof            61.64      0.00      0.00      0.00      0.00      7.05     68.78       -0.12
  sub69             GreenRoof            61.64      0.00      0.00      0.00      0.00      7.05     68.78       -0.12
  sub70             GreenRoof            61.64      0.00      0.00      0.00      0.00      7.05     68.78       -0.12
  sub71             GreenRoof            61.64      0.00      0.00      0.00      0.00      7.05     68.78       -0.12
  sub72             GreenRoof            61.64      0.00      0.00      0.00      0.00      7.05     68.78       -0.12
  
  ******************
  Node Depth Summary
  ******************
  
  ---------------------------------------------------------------------------------
                                 Average  Maximum  Maximum  Time of Max    Reported
                                   Depth    Depth      HGL   Occurrence   Max Depth
  Node                 Type       Meters   Meters   Meters  days hr:min      Meters
  ---------------------------------------------------------------------------------
  WS02001211           JUNCTION     0.60     0.64     5.48     0  02:40        0.64
  WS02001212           JUNCTION     0.34     0.38     5.45     0  02:43        0.38
  WS02001213           JUNCTION     0.53     0.65     5.41     0  02:42        0.65
  WS02003059           JUNCTION     0.59     0.72     5.40     0  02:38        0.72
  WS02003060           JUNCTION     0.30     0.45     5.38     0  02:41        0.45
  WS02003066           JUNCTION     0.16     0.30     5.85     0  03:06        0.30
  WS02003067           JUNCTION     0.44     0.70     6.02     0  03:06        0.70
  WS02003069           JUNCTION     0.34     0.51     5.09     0  02:39        0.51
  WS02003072           JUNCTION     0.40     0.57     4.94     0  02:39        0.57
  WS02003073           JUNCTION     0.23     0.35     4.41     0  02:40        0.35
  WS02004138           JUNCTION     0.13     0.14     7.39     0  00:29        0.14
  WS02004139           JUNCTION     0.54     0.58     5.49     0  02:41        0.58
  WS02004401           JUNCTION     0.53     0.85     6.85     0  03:04        0.85
  WS02004402           JUNCTION     0.56     0.88     6.84     0  02:36        0.88
  WS02004403           JUNCTION     0.58     0.89     6.82     0  02:36        0.89
  WS02004404           JUNCTION     0.66     0.96     6.81     0  02:36        0.96
  WS02004405           JUNCTION     0.65     0.96     6.81     0  02:36        0.95
  WS02004406           JUNCTION     0.67     0.96     6.79     0  02:36        0.96
  WS02004407           JUNCTION     0.14     0.30     6.61     0  03:05        0.30
  WS02004409           JUNCTION     0.31     0.67     6.44     0  03:05        0.67
  WS02004410           JUNCTION     0.34     0.68     6.40     0  03:05        0.68
  WS02004411           JUNCTION     0.37     0.69     6.37     0  03:06        0.69
  WS02004412           JUNCTION     0.39     0.70     6.34     0  03:06        0.70
  WS02004413           JUNCTION     0.54     0.86     6.33     0  03:06        0.86
  WS02006109           JUNCTION     0.59     1.67     8.29     0  02:12        1.01
  WS02006110           JUNCTION     0.59     2.06     8.64     0  02:12        0.93
  WS02006111           JUNCTION     0.15     0.29     6.99     0  02:35        0.29
  WS02006112           JUNCTION     0.68     1.08     6.97     0  02:42        1.07
  WS02006113           JUNCTION     0.23     0.46     7.35     0  02:23        0.46
  WS02006115           JUNCTION     0.41     0.75     6.89     0  02:35        0.75
  WS02006116           JUNCTION     0.50     0.83     6.87     0  02:35        0.83
  WS02006228           JUNCTION     0.58     1.49     8.14     0  02:11        1.12
  WS02006229           JUNCTION     0.56     1.56     8.26     0  02:11        1.16
  WS02006230           JUNCTION     0.56     1.84     8.59     0  02:54        1.34
  WS02006231           JUNCTION     0.36     2.09     9.21     0  02:54        2.09
  WS02006232           JUNCTION     0.49     1.93     8.97     0  02:54        1.93
  WS02006234           JUNCTION     0.42     1.56     8.71     0  02:30        1.52
  WS02006235           JUNCTION     0.46     1.60     8.76     0  02:35        1.49
  WS02006238           JUNCTION     0.49     1.66     8.80     0  02:35        1.52
  WS02006239           JUNCTION     0.45     1.70     8.91     0  02:35        1.48
  WS02006240           JUNCTION     0.42     1.66     8.95     0  02:35        1.40
  WS02006242           JUNCTION     0.48     1.55     8.82     0  02:35        1.43
  WS02006243           JUNCTION     0.40     1.44     8.86     0  02:35        1.30
  WS02006245           JUNCTION     0.41     1.35     8.83     0  02:41        1.24
  WS02006247           JUNCTION     0.42     1.29     8.79     0  02:41        1.22
  WS02006248           JUNCTION     0.39     1.10     8.69     0  02:10        1.10
  WS02006249           JUNCTION     0.42     1.09     8.69     0  02:09        1.09
  WS02006251           JUNCTION     0.42     1.45     9.12     0  02:09        1.17
  WS02006252           JUNCTION     0.29     1.50     9.74     0  00:00        0.72
  WS02006256           JUNCTION     1.09     2.35     9.28     0  00:00        2.35
  WSF200               JUNCTION     0.14     0.31     5.54     0  02:40        0.31
  YS02001580           JUNCTION     0.10     1.05     9.59     0  02:14        0.77
  YS02001583           JUNCTION     0.13     1.04     9.53     0  02:14        0.82
  YS02001586           JUNCTION     0.22     1.13     9.30     0  02:14        1.13
  YS02001590           JUNCTION     0.33     1.40     9.26     0  02:14        1.37
  YS02001593           JUNCTION     0.26     1.34     9.20     0  02:14        1.28
  YS02001596           JUNCTION     0.36     1.68     9.10     0  02:14        1.65
  YS02001600           JUNCTION     0.47     1.87     9.00     0  02:14        1.86
  YS02001601           JUNCTION     0.66     2.06     8.90     0  02:14        2.06
  YS02001602           JUNCTION     0.57     1.87     8.77     0  02:17        1.87
  YS02001605           JUNCTION     0.52     1.77     8.68     0  02:24        1.77
  YS02001607           JUNCTION     0.50     1.65     8.49     0  02:23        1.64
  YS02001610           JUNCTION     0.54     1.68     8.48     0  02:17        1.68
  YS02001613           JUNCTION     0.50     1.67     8.51     0  02:24        1.67
  YS02001616           JUNCTION     0.43     1.61     8.52     0  02:24        1.61
  YS02001619           JUNCTION     0.41     1.61     8.54     0  02:24        1.61
  YS02001622           JUNCTION     0.39     1.60     8.50     0  02:24        1.60
  YS02001625           JUNCTION     0.65     1.78     8.38     0  02:17        1.78
  YS02001629           JUNCTION     0.54     1.85     8.40     0  02:19        1.85
  YS02001633           JUNCTION     0.61     2.05     8.51     0  02:24        2.05
  YS02001641           JUNCTION     0.59     1.98     8.41     0  02:20        1.95
  YS02001644           JUNCTION     0.58     1.92     8.35     0  02:20        1.92
  YS02001647           JUNCTION     0.36     1.77     8.38     0  02:20        1.75
  YS02001649           JUNCTION     0.41     2.00     8.39     0  02:20        1.94
  YS02001652           JUNCTION     0.29     2.07     8.67     0  02:20        1.77
  YS02001655           JUNCTION     0.21     2.02     8.87     0  02:20        1.53
  YS02001658           JUNCTION     0.15     2.30     9.44     0  02:20        1.27
  YS02001661           JUNCTION     0.17     1.14     8.54     0  02:24        1.06
  YS02001664           JUNCTION     0.07     0.50     8.42     0  02:24        0.49
  YS02001745           JUNCTION     0.08     0.74     8.26     0  02:24        0.73
  YS02001748           JUNCTION     0.14     1.40     8.48     0  02:21        1.17
  YS02001751           JUNCTION     0.18     1.45     8.33     0  02:21        1.36
  YS02001754           JUNCTION     0.25     1.64     8.25     0  02:24        1.61
  YS02001757           JUNCTION     0.42     1.99     8.25     0  02:24        1.97
  YS02001759           JUNCTION     0.36     1.98     8.34     0  02:24        1.98
  YS02001762           JUNCTION     0.35     1.96     8.36     0  02:24        1.96
  YS02001765           JUNCTION     0.33     1.92     8.37     0  02:24        1.92
  YS02001767           JUNCTION     0.33     1.90     8.39     0  02:24        1.90
  YS02001770           JUNCTION     0.34     1.95     8.44     0  02:24        1.95
  YS02001774           JUNCTION     0.41     1.99     8.41     0  02:20        1.97
  YS02001779           JUNCTION     0.23     1.68     8.37     0  02:18        1.68
  YS02001783           JUNCTION     0.28     1.27     7.41     0  02:20        1.23
  YS02001784           JUNCTION     0.30     1.15     7.21     0  02:20        1.11
  YS02001786           JUNCTION     0.25     0.90     6.93     0  02:20        0.87
  YS02001788           JUNCTION     0.18     0.62     6.60     0  02:24        0.62
  YS02001790           JUNCTION     0.22     0.73     6.37     0  02:24        0.71
  YS02001791           JUNCTION     0.14     0.44     5.91     0  02:23        0.44
  YS02001793           JUNCTION     0.07     0.30     5.14     0  02:25        0.27
  YS02001882           JUNCTION     0.35     1.67     8.38     0  02:24        1.67
  YS02001884           JUNCTION     0.43     1.77     8.38     0  02:24        1.77
  YS02001887           JUNCTION     0.51     1.86     8.39     0  02:24        1.86
  YS02001890           JUNCTION     0.54     1.81     8.32     0  02:20        1.81
  YS02001895           JUNCTION     0.31     1.57     8.31     0  02:20        1.56
  YS02001898           JUNCTION     0.32     1.57     8.30     0  02:20        1.55
  YS02001901           JUNCTION     0.43     1.69     8.30     0  02:20        1.67
  YS02001904           JUNCTION     0.41     1.65     8.28     0  02:20        1.63
  YS02001907           JUNCTION     0.73     1.96     8.25     0  02:20        1.96
  YS02001910           JUNCTION     0.53     1.98     8.49     0  02:21        1.86
  YS02001915           JUNCTION     0.34     1.93     8.65     0  02:21        1.74
  YS02001918           JUNCTION     0.17     1.81     8.88     0  02:21        1.37
  YS02001920           JUNCTION     0.26     2.08     9.09     0  02:21        1.44
  YS02001923           JUNCTION     0.13     1.98     9.24     0  02:21        1.20
  YS02001926           JUNCTION     0.17     1.87     9.32     0  02:21        1.04
  YS02001929           JUNCTION     0.09     1.78     9.47     0  02:21        0.82
  YS02006553           JUNCTION     0.73     1.98     8.26     0  02:20        1.97
  YS02006556           JUNCTION     0.70     1.99     8.30     0  02:24        1.99
  YS02006558           JUNCTION     0.75     2.03     8.30     0  02:24        2.03
  YS02006561           JUNCTION     0.17     0.94     7.60     0  02:20        0.88
  YS02163301           JUNCTION     0.56     1.95     8.46     0  02:24        1.95
  YS02163601           JUNCTION     0.65     2.06     8.46     0  02:20        2.04
  YS02164001           JUNCTION     0.58     1.99     8.44     0  02:20        1.94
  CC-1                 OUTFALL      0.00     0.00     0.00     0  00:00        0.00
  CC-2                 OUTFALL      0.00     0.00     0.00     0  00:00        0.00
  JK-1                 OUTFALL      0.00     0.00     0.00     0  00:00        0.00
  JK-2                 OUTFALL      0.00     0.00     0.00     0  00:00        0.00
  WSC                  OUTFALL      0.23     0.35     1.02     0  02:40        0.35
  CC-storage           STORAGE      0.87     1.69     7.19     0  02:41        1.69
  JK-storage           STORAGE      3.15     4.23     5.03     0  02:30        4.22
  XR-storage           STORAGE      7.83     9.26     7.26     0  08:00        9.26
  
  
  *******************
  Node Inflow Summary
  *******************
  
  -------------------------------------------------------------------------------------------------
                                  Maximum  Maximum                  Lateral       Total        Flow
                                  Lateral    Total  Time of Max      Inflow      Inflow     Balance
                                   Inflow   Inflow   Occurrence      Volume      Volume       Error
  Node                 Type           LPS      LPS  days hr:min    10^6 ltr    10^6 ltr     Percent
  -------------------------------------------------------------------------------------------------
  WS02001211           JUNCTION      7.35   200.39     0  03:12       0.212        5.44       0.611
  WS02001212           JUNCTION      0.00   202.39     0  03:12           0        5.41       0.290
  WS02001213           JUNCTION      0.00   204.09     0  03:13           0        5.39       0.333
  WS02003059           JUNCTION      0.00   208.87     0  03:52           0        5.38       0.595
  WS02003060           JUNCTION     16.53   749.53     0  02:40       0.476        9.26       0.157
  WS02003066           JUNCTION      0.00   534.39     0  03:06           0        3.43       0.043
  WS02003067           JUNCTION      0.00   534.35     0  03:06           0        3.44       0.125
  WS02003069           JUNCTION      0.32   746.17     0  02:39     0.00922        9.24       0.166
  WS02003072           JUNCTION      0.00   745.71     0  02:39           0        9.23       0.226
  WS02003073           JUNCTION      1.82   747.21     0  02:40      0.0524        9.26       0.235
  WS02004138           JUNCTION      0.00   380.00     0  00:00           0        5.25       0.053
  WS02004139           JUNCTION      0.32   191.16     0  00:29     0.00924        5.26       0.509
  WS02004401           JUNCTION      0.00   539.75     0  02:43           0        3.54       0.290
  WS02004402           JUNCTION      0.00   537.77     0  02:35           0        3.53       0.295
  WS02004403           JUNCTION      0.00   536.90     0  02:36           0        3.52       0.288
  WS02004404           JUNCTION      0.16   536.87     0  02:36     0.00467        3.51       0.246
  WS02004405           JUNCTION      0.04   536.69     0  02:36      0.0011        3.51       0.353
  WS02004406           JUNCTION      0.00   536.87     0  02:36           0        3.49       0.597
  WS02004407           JUNCTION      0.00   536.10     0  02:36           0        3.47       0.034
  WS02004409           JUNCTION      0.00   535.68     0  03:05           0        3.47       0.083
  WS02004410           JUNCTION      0.00   535.27     0  03:05           0        3.47       0.133
  WS02004411           JUNCTION      0.00   534.94     0  03:05           0        3.46       0.169
  WS02004412           JUNCTION      0.00   534.65     0  03:06           0        3.46       0.225
  WS02004413           JUNCTION      0.00   534.39     0  03:06           0        3.45       0.396
  WS02006109           JUNCTION      1.23   568.32     0  02:12      0.0354        3.59       0.228
  WS02006110           JUNCTION      0.00   568.51     0  02:12           0        3.58       0.183
  WS02006111           JUNCTION      0.00   560.97     0  02:23           0        3.57       0.022
  WS02006112           JUNCTION      0.00   542.45     0  02:35           0        3.57       0.490
  WS02006113           JUNCTION      0.00   579.23     0  02:12           0        3.57       0.047
  WS02006115           JUNCTION      0.00   550.99     0  02:55           0        3.55       0.185
  WS02006116           JUNCTION      0.00   540.96     0  02:35           0        3.55       0.140
  WS02006228           JUNCTION      0.00   566.51     0  02:12           0        3.55       0.096
  WS02006229           JUNCTION      0.00   566.50     0  02:12           0        3.56       0.154
  WS02006230           JUNCTION     10.28   591.63     0  02:21       0.296        3.56       0.116
  WS02006231           JUNCTION      0.00   586.07     0  02:17           0        3.26      -0.127
  WS02006232           JUNCTION      0.00   584.75     0  02:17           0        3.28       0.392
  WS02006234           JUNCTION      0.00   577.64     0  02:17           0        3.27      -0.337
  WS02006235           JUNCTION      0.00   566.37     0  02:11           0        3.36       0.323
  WS02006238           JUNCTION      0.00   425.31     0  02:45           0        2.51      -0.135
  WS02006239           JUNCTION      0.00   424.43     0  02:45           0        2.46      -0.096
  WS02006240           JUNCTION      0.00   420.91     0  02:45           0        2.42      -0.052
  WS02006242           JUNCTION      0.00   420.62     0  03:30           0        2.39      -0.123
  WS02006243           JUNCTION      0.00   420.45     0  02:45           0        2.37      -0.016
  WS02006245           JUNCTION      0.00   420.86     0  02:45           0        2.37       0.369
  WS02006247           JUNCTION      0.00   421.71     0  02:45           0        2.37      -0.024
  WS02006248           JUNCTION      0.00   422.57     0  02:45           0        2.37      -0.067
  WS02006249           JUNCTION      0.00   458.97     0  00:00           0        2.55       0.444
  WS02006251           JUNCTION      0.08   407.14     0  02:09     0.00222        2.55       0.003
  WS02006252           JUNCTION      0.00   400.00     0  00:00           0        2.54      -0.205
  WS02006256           JUNCTION      0.00   353.88     0  01:55           0        1.27      -1.069
  WSF200               JUNCTION      0.00   534.41     0  03:06           0        3.43       0.020
  YS02001580           JUNCTION      0.00    74.77     0  02:14           0       0.004       1.119
  YS02001583           JUNCTION      0.00   130.60     0  02:14           0       0.015      -4.667
  YS02001586           JUNCTION    610.67   610.67     0  02:26        1.31        1.32       0.082
  YS02001590           JUNCTION      0.00   317.86     0  02:23           0        1.13      -0.022
  YS02001593           JUNCTION      0.00   317.95     0  02:31           0        1.13       0.005
  YS02001596           JUNCTION      0.00   317.90     0  02:23           0        1.13      -0.003
  YS02001600           JUNCTION      0.00   318.00     0  02:30           0        1.13       0.019
  YS02001601           JUNCTION   1016.14  1333.34     0  02:25        1.75        2.88       0.024
  YS02001602           JUNCTION      0.00   492.03     0  02:14           0        2.02       0.019
  YS02001605           JUNCTION      0.00   492.07     0  02:14           0        1.93       0.022
  YS02001607           JUNCTION      0.00   491.54     0  02:14           0        1.93       0.100
  YS02001610           JUNCTION      0.00   518.99     0  02:26           0        1.99       0.119
  YS02001613           JUNCTION      0.00   493.18     0  02:13           0        1.69       0.097
  YS02001616           JUNCTION      0.00   493.14     0  02:13           0        1.69       0.028
  YS02001619           JUNCTION   1054.03  1054.03     0  02:26        2.02        3.65       0.001
  YS02001622           JUNCTION      0.00   906.43     0  02:17           0        3.59       0.004
  YS02001625           JUNCTION      0.00  1153.79     0  02:26           0        3.69       0.256
  YS02001629           JUNCTION      0.00   906.80     0  02:17           0        3.02       0.017
  YS02001633           JUNCTION    786.83  1274.42     0  02:17        1.32        4.25       0.080
  YS02001641           JUNCTION      0.00  1277.02     0  02:17           0        4.15       0.068
  YS02001644           JUNCTION    672.25  1601.85     0  02:18        1.09        5.23       0.063
  YS02001647           JUNCTION      0.00  1602.69     0  02:18           0        5.09       0.005
  YS02001649           JUNCTION      0.00  1770.40     0  02:19           0        6.13       0.004
  YS02001652           JUNCTION      0.00   729.04     0  02:25           0        1.04      -0.089
  YS02001655           JUNCTION      0.15   728.03     0  02:25     0.00443        1.04      -0.005
  YS02001658           JUNCTION      0.00   726.51     0  02:25           0        1.04      -0.054
  YS02001661           JUNCTION      0.00   867.90     0  02:25           0        1.04      -0.007
  YS02001664           JUNCTION    685.05   685.05     0  02:25        1.04        1.04      -0.009
  YS02001745           JUNCTION    405.18   405.18     0  02:25       0.595       0.595       0.175
  YS02001748           JUNCTION      0.04   488.81     0  02:21      0.0013       0.596      -0.326
  YS02001751           JUNCTION      0.01   411.95     0  02:25    0.000317       0.603       0.171
  YS02001754           JUNCTION      0.26   412.09     0  02:25     0.00749       0.618      -0.190
  YS02001757           JUNCTION      0.00  2981.77     0  02:24           0        8.87       0.012
  YS02001759           JUNCTION    593.07  1219.96     0  02:24        0.87        2.13      -0.016
  YS02001762           JUNCTION      0.00   672.27     0  02:23           0        1.26       0.008
  YS02001765           JUNCTION      0.00   672.76     0  02:23           0        1.26       0.001
  YS02001767           JUNCTION      0.54   673.22     0  02:23      0.0154        1.26       0.013
  YS02001770           JUNCTION    816.75   816.75     0  02:25        1.28        1.32      -0.035
  YS02001774           JUNCTION      0.00   228.67     0  02:17           0      0.0991       1.139
  YS02001779           JUNCTION      0.01   230.52     0  02:17    0.000144      0.0559      -1.066
  YS02001783           JUNCTION      0.00  1159.15     0  02:24           0        3.35       0.006
  YS02001784           JUNCTION      1.06  1160.57     0  02:24      0.0305        3.38       0.014
  YS02001786           JUNCTION      0.06  1161.22     0  02:24     0.00162        3.38       0.020
  YS02001788           JUNCTION      0.07  1161.63     0  02:24     0.00204        3.39       0.008
  YS02001790           JUNCTION      0.15  1168.75     0  02:22     0.00446        3.39       0.020
  YS02001791           JUNCTION      0.00  1293.54     0  02:24           0        3.39      -0.019
  YS02001793           JUNCTION      0.00  1253.69     0  02:25           0        3.39       0.005
  YS02001882           JUNCTION      0.00    28.67     0  02:18           0      0.0123       5.230
  YS02001884           JUNCTION      0.00    53.10     0  02:17           0      0.0479       5.436
  YS02001887           JUNCTION    621.76   621.79     0  02:25       0.901       0.934       0.476
  YS02001890           JUNCTION      0.00   620.96     0  02:25           0       0.893       0.572
  YS02001895           JUNCTION      0.00   516.50     0  02:26           0        0.87       0.171
  YS02001898           JUNCTION      0.00   516.95     0  02:26           0       0.868       0.037
  YS02001901           JUNCTION      0.00   516.35     0  02:26           0       0.871       0.378
  YS02001904           JUNCTION      0.00   516.25     0  02:26           0       0.875       0.321
  YS02001907           JUNCTION      0.00  1597.71     0  02:25           0        2.68       0.674
  YS02001910           JUNCTION      0.00  1084.46     0  02:25           0        1.81       0.398
  YS02001915           JUNCTION    676.91  1083.92     0  02:25        1.11        1.84       0.084
  YS02001918           JUNCTION      0.00   459.13     0  02:22           0       0.754       0.012
  YS02001920           JUNCTION      2.87   458.12     0  02:22      0.0827       0.741       0.128
  YS02001923           JUNCTION      0.04   430.23     0  02:21     0.00109       0.645      -0.045
  YS02001926           JUNCTION      0.05   424.61     0  02:21      0.0015        0.63       0.068
  YS02001929           JUNCTION    351.01   351.01     0  02:25       0.622       0.622      -0.096
  YS02006553           JUNCTION      0.00   797.51     0  02:35           0        2.15       0.554
  YS02006556           JUNCTION      0.00   796.83     0  02:35           0        2.16       0.372
  YS02006558           JUNCTION    813.00  1159.35     0  02:23        1.25        3.38       0.104
  YS02006561           JUNCTION      0.00  1158.69     0  02:23           0        3.35       0.002
  YS02163301           JUNCTION      0.00   903.85     0  02:16           0        3.02       0.052
  YS02163601           JUNCTION      0.11  1274.19     0  02:17     0.00317        4.15       0.115
  YS02164001           JUNCTION      0.00  1274.04     0  02:17           0        4.15       0.055
  CC-1                 OUTFALL       0.00   683.00     0  00:00           0        3.69       0.000
  CC-2                 OUTFALL       0.00   683.00     0  00:00           0        3.37       0.000
  JK-1                 OUTFALL       0.00  1000.00     0  00:00           0        2.09       0.000
  JK-2                 OUTFALL       0.00  1000.00     0  00:00           0      0.0484       0.000
  WSC                  OUTFALL       0.00   747.04     0  02:40           0        9.24       0.000
  CC-storage           STORAGE       0.00  2983.77     0  02:24           0        11.1      -0.202
  JK-storage           STORAGE       0.00  1218.06     0  02:22           0        3.54      -0.034
  XR-storage           STORAGE     200.00   200.00     0  00:00        5.76        6.36       0.001
  
  
  **********************
  Node Surcharge Summary
  **********************
  
  Surcharging occurs when water rises above the top of the highest conduit.
  ---------------------------------------------------------------------
                                               Max. Height   Min. Depth
                                   Hours       Above Crown    Below Rim
  Node                 Type      Surcharged         Meters       Meters
  ---------------------------------------------------------------------
  WS02006109           JUNCTION        1.54          0.850        0.970
  WS02006110           JUNCTION        0.52          1.149        0.701
  WS02006112           JUNCTION        0.66          0.085        1.595
  WS02006228           JUNCTION        1.54          0.658        1.542
  WS02006229           JUNCTION        1.57          0.761        1.689
  WS02006230           JUNCTION        0.55          0.760        0.810
  WS02006231           JUNCTION        0.68          1.380        0.150
  WS02006232           JUNCTION        1.60          1.229        0.251
  WS02006234           JUNCTION        0.95          0.837        0.403
  WS02006235           JUNCTION        1.52          0.887        0.403
  WS02006238           JUNCTION        1.57          0.936        0.494
  WS02006239           JUNCTION        1.50          0.961        0.329
  WS02006240           JUNCTION        1.51          0.948        0.442
  WS02006242           JUNCTION        1.51          0.820        0.000
  WS02006243           JUNCTION        1.50          0.730        0.040
  WS02006245           JUNCTION        1.49          0.640        0.210
  WS02006247           JUNCTION        1.49          0.581        0.179
  WS02006248           JUNCTION        1.48          0.380        0.000
  WS02006249           JUNCTION        1.48          0.390        0.000
  WS02006251           JUNCTION        0.75          0.424        0.756
  WS02006252           JUNCTION        1.65          1.100        0.000
  WS02006256           JUNCTION        4.20          2.050        0.000
  YS02001580           JUNCTION        0.47          0.450        0.000
  YS02001583           JUNCTION        0.48          0.397        0.103
  YS02001586           JUNCTION        0.57          0.510        0.000
  YS02001590           JUNCTION        0.64          0.750        0.000
  YS02001593           JUNCTION        0.65          0.719        0.121
  YS02001596           JUNCTION        0.76          0.954        0.116
  YS02001600           JUNCTION        0.91          1.190        0.000
  YS02001601           JUNCTION        1.26          1.440        0.000
  YS02001602           JUNCTION        1.15          1.270        0.000
  YS02001605           JUNCTION        1.10          1.175        0.005
  YS02001607           JUNCTION        0.63          0.646        0.034
  YS02001610           JUNCTION        0.65          0.680        0.000
  YS02001613           JUNCTION        0.62          0.666        0.034
  YS02001616           JUNCTION        0.58          0.610        0.000
  YS02001619           JUNCTION        0.57          0.610        0.000
  YS02001622           JUNCTION        0.57          0.596        0.024
  YS02001625           JUNCTION        0.74          0.780        0.000
  YS02001629           JUNCTION        0.53          0.470        0.000
  YS02001633           JUNCTION        0.77          1.031        0.029
  YS02001641           JUNCTION        0.71          0.975        0.125
  YS02001644           JUNCTION        0.67          0.920        0.000
  YS02001647           JUNCTION        0.49          0.773        0.127
  YS02001649           JUNCTION        0.60          0.995        0.055
  YS02001652           JUNCTION        0.43          1.040        0.090
  YS02001655           JUNCTION        0.31          1.025        0.175
  YS02001658           JUNCTION        0.16          1.300        0.000
  YS02001661           JUNCTION        0.01          0.070        1.320
  YS02001748           JUNCTION        0.10          0.321        0.869
  YS02001751           JUNCTION        0.23          0.450        0.750
  YS02001754           JUNCTION        0.36          0.590        0.560
  YS02001757           JUNCTION        0.67          0.989        0.221
  YS02001759           JUNCTION        0.57          0.981        0.229
  YS02001762           JUNCTION        0.54          0.960        0.190
  YS02001765           JUNCTION        0.50          0.922        0.178
  YS02001767           JUNCTION        0.47          0.897        0.133
  YS02001770           JUNCTION        0.46          0.920        0.000
  YS02001774           JUNCTION        0.53          0.986        0.064
  YS02001779           JUNCTION        0.35          0.680        0.000
  YS02001783           JUNCTION        0.38          0.466        1.134
  YS02001784           JUNCTION        0.36          0.346        1.144
  YS02001786           JUNCTION        0.26          0.098        1.332
  YS02001882           JUNCTION        0.33          0.669        0.161
  YS02001884           JUNCTION        0.34          0.708        0.162
  YS02001887           JUNCTION        0.38          0.806        0.144
  YS02001890           JUNCTION        0.39          0.760        0.000
  YS02001895           JUNCTION        0.32          0.567        0.183
  YS02001898           JUNCTION        0.32          0.538        0.202
  YS02001901           JUNCTION        0.36          0.689        0.181
  YS02001904           JUNCTION        0.35          0.647        0.203
  YS02001907           JUNCTION        0.61          0.950        0.000
  YS02001910           JUNCTION        0.41          0.983        0.117
  YS02001915           JUNCTION        0.33          0.935        0.065
  YS02001918           JUNCTION        0.25          0.810        0.000
  YS02001920           JUNCTION        0.26          1.082        0.058
  YS02001923           JUNCTION        0.02          0.768        0.052
  YS02001926           JUNCTION        0.03          0.871        0.029
  YS02001929           JUNCTION        0.01          0.780        0.000
  YS02006553           JUNCTION        0.63          0.980        0.210
  YS02006556           JUNCTION        0.51          0.946        0.404
  YS02006558           JUNCTION        0.49          0.930        0.470
  YS02006561           JUNCTION        0.22          0.138        1.012
  YS02163301           JUNCTION        0.75          0.947        0.083
  YS02163601           JUNCTION        0.80          1.059        0.021
  YS02164001           JUNCTION        0.71          0.985        0.115
  
  
  *********************
  Node Flooding Summary
  *********************
  
  Flooding refers to all water that overflows a node, whether it ponds or not.
  --------------------------------------------------------------------------
                                                             Total   Maximum
                                 Maximum   Time of Max       Flood    Ponded
                        Hours       Rate    Occurrence      Volume     Depth
  Node                 Flooded       LPS   days hr:min    10^6 ltr    Meters
  --------------------------------------------------------------------------
  WS02006242              0.01     14.37      0  02:35       0.000     0.000
  WS02006248              0.01     24.26      0  02:35       0.000     0.000
  WS02006249              0.72    100.95      0  02:09       0.169     0.000
  WS02006252              0.01    245.63      0  00:00       0.000     0.000
  WS02006256              1.17    352.75      0  01:55       0.372     0.000
  YS02001580              0.01     41.37      0  02:14       0.000     0.000
  YS02001586              0.35    293.01      0  02:26       0.179     0.000
  YS02001590              0.01      8.39      0  02:14       0.000     0.000
  YS02001600              0.01      2.71      0  02:14       0.000     0.000
  YS02001601              0.51    935.46      0  02:25       0.857     0.000
  YS02001602              0.41     62.05      0  02:32       0.084     0.000
  YS02001610              0.36    518.67      0  02:26       0.360     0.000
  YS02001616              0.01      1.30      0  02:24       0.000     0.000
  YS02001625              0.34   1153.72      0  02:26       0.755     0.000
  YS02001629              0.04     21.37      0  02:20       0.001     0.000
  YS02001644              0.13    542.94      0  02:25       0.136     0.000
  YS02001658              0.01    221.70      0  02:20       0.000     0.000
  YS02001770              0.01      1.11      0  02:24       0.000     0.000
  YS02001779              0.10    215.29      0  02:18       0.038     0.000
  YS02001890              0.10    109.08      0  02:25       0.018     0.000
  YS02001907              0.21   1241.69      0  02:25       0.518     0.000
  YS02001918              0.01     81.41      0  02:21       0.000     0.000
  YS02001929              0.01    191.66      0  02:21       0.000     0.000
  
  
  **********************
  Storage Volume Summary
  **********************
  
  ------------------------------------------------------------------------------------------------
                         Average    Avg   Evap  Exfil     Maximum    Max    Time of Max    Maximum
                          Volume   Pcnt   Pcnt   Pcnt      Volume   Pcnt     Occurrence    Outflow
  Storage Unit           1000 m³   Full   Loss   Loss     1000 m³   Full    days hr:min        LPS
  ------------------------------------------------------------------------------------------------
  CC-storage               2.420   37.8    0.0    0.0       4.698   73.3       0  02:41    1783.53
  JK-storage               0.158   54.3    0.0    0.0       0.213   73.0       0  02:30    2300.00
  XR-storage               0.940   65.3    0.0    0.0       1.111   77.2       0  08:00     380.00
  
  
  ***********************
  Outfall Loading Summary
  ***********************
  
  -----------------------------------------------------------
                         Flow       Avg       Max       Total
                         Freq      Flow      Flow      Volume
  Outfall Node           Pcnt       LPS       LPS    10^6 ltr
  -----------------------------------------------------------
  CC-1                  30.50    683.00    683.00       3.687
  CC-2                  27.50    683.00    683.00       3.369
  JK-1                  14.11   1000.00   1000.00       2.086
  JK-2                   0.23   1000.00   1000.00       0.048
  WSC                   99.93    380.57    747.04       9.238
  -----------------------------------------------------------
  System                34.46   3746.57   3366.23      18.429
  
  
  ********************
  Link Flow Summary
  ********************
  
  -----------------------------------------------------------------------------
                                 Maximum  Time of Max   Maximum    Max/    Max/
                                  |Flow|   Occurrence   |Veloc|    Full    Full
  Link                 Type          LPS  days hr:min     m/sec    Flow   Depth
  -----------------------------------------------------------------------------
  1                    CONDUIT    747.04     0  02:40      3.07    0.26    0.35
  WS02001211WS02001212 CONDUIT    202.39     0  03:12      0.54    0.15    0.51
  WS02001212WS02001213 CONDUIT    204.09     0  03:13      1.04    0.31    0.36
  WS02001213WS02003059 CONDUIT    208.87     0  03:52      0.47    0.34    0.67
  WS02003059WS02003060 CONDUIT    215.76     0  03:53      0.67    0.14    0.58
  WS02003060WS02003069 CONDUIT    745.85     0  02:39      1.77    0.29    0.40
  WS02003066WSF200     CONDUIT    534.41     0  03:06      2.73    0.09    0.23
  WS02003067WS02003066 CONDUIT    534.39     0  03:06      1.20    0.17    0.42
  WS02003069WS02003072 CONDUIT    745.71     0  02:39      1.51    0.36    0.45
  WS02003072WS02003073 CONDUIT    745.39     0  02:40      1.59    1.61    0.43
  WS02004138WS02004139 CONDUIT    190.84     0  00:29      2.17    0.04    0.33
  WS02004139WS02001211 CONDUIT    193.04     0  03:12      0.54    0.24    0.47
  WS02004401WS02004402 CONDUIT    537.77     0  02:35      0.97    0.65    0.86
  WS02004402WS02004403 CONDUIT    536.90     0  02:36      0.97    0.77    0.88
  WS02004403WS02004404 CONDUIT    536.71     0  02:36      0.92    0.39    0.93
  WS02004404WS02004405 CONDUIT    536.65     0  02:36      1.08    5.26    0.96
  WS02004405WS02004406 CONDUIT    536.87     0  02:36      0.99    1.06    0.96
  WS02004406WS02004407 CONDUIT    536.10     0  02:36      1.04    0.24    0.63
  WS02004407WS02004409 CONDUIT    535.68     0  03:05      1.49    0.19    0.48
  WS02004409WS02004410 CONDUIT    535.27     0  03:05      0.97    0.69    0.67
  WS02004410WS02004411 CONDUIT    534.94     0  03:05      0.94    0.73    0.68
  WS02004411WS02004412 CONDUIT    534.65     0  03:06      0.92    0.76    0.69
  WS02004412WS02004413 CONDUIT    534.39     0  03:06      0.82    0.36    0.78
  WS02004413WS02003067 CONDUIT    534.35     0  03:06      1.11    0.23    0.59
  WS02006109WS02006110 CONDUIT    568.51     0  02:12      1.13    1.09    1.00
  WS02006110WS02006113 CONDUIT    579.23     0  02:12      1.41    0.53    0.79
  WS02006111WS02006112 CONDUIT    542.45     0  02:35      1.82    0.26    0.67
  WS02006112WS02006115 CONDUIT    550.99     0  02:55      0.78    0.33    0.87
  WS02006113WS02006111 CONDUIT    560.97     0  02:23      2.47    0.67    0.46
  WS02006115WS02006116 CONDUIT    540.96     0  02:35      0.97    0.69    0.76
  WS02006116WS02004401 CONDUIT    539.75     0  02:43      0.98    0.74    0.84
  WS02006228WS02006109 CONDUIT    567.09     0  02:12      1.13    2.48    1.00
  WS02006229WS02006228 CONDUIT    566.51     0  02:12      1.15    1.88    1.00
  WS02006230WS02006229 CONDUIT    566.50     0  02:12      1.47   12.61    1.00
  WS02006231WS02006230 CONDUIT    581.36     0  02:21      1.59    8.82    1.00
  WS02006232WS02006231 CONDUIT    586.07     0  02:17      1.53    1.23    1.00
  WS02006234WS02006232 CONDUIT    584.75     0  02:17      1.52    1.18    1.00
  WS02006235WS02006234 CONDUIT    577.64     0  02:17      1.50    6.09    1.00
  WS02006238WS02006235 CONDUIT    424.97     0  02:45      1.56    0.95    1.00
  WS02006239WS02006238 CONDUIT    425.31     0  02:45      1.11    1.36    1.00
  WS02006240WS02006239 CONDUIT    424.43     0  02:45      1.24    1.34    1.00
  WS02006242WS02006240 CONDUIT    420.91     0  02:45      1.12    1.67    1.00
  WS02006243WS02006242 CONDUIT    420.62     0  03:30      1.39    0.90    1.00
  WS02006245WS02006243 CONDUIT    420.45     0  02:45      1.45    1.24    1.00
  WS02006247WS02006245 CONDUIT    420.86     0  02:45      1.44    3.34    1.00
  WS02006248WS02006247 CONDUIT    421.71     0  02:45      1.45    0.92    1.00
  WS02006249WS02006248 CONDUIT    422.57     0  02:45      1.37    2.31    1.00
  WS02006251WS02006249 CONDUIT    458.97     0  00:00      1.99    1.32    1.00
  WS02006252WS02006251 CONDUIT    407.06     0  02:09     25.11    1.49    1.00
  WS02006256WS02006235 CONDUIT    289.22     0  01:53      4.23    3.06    1.00
  WSF200WS02003060     CONDUIT    534.53     0  03:07      1.75    0.12    0.32
  YS02001580YS02001583 CONDUIT     74.77     0  02:14      0.54    0.29    1.00
  YS02001583YS02001586 CONDUIT    130.60     0  02:14      0.55    0.20    1.00
  YS02001586YS02001590 CONDUIT    317.86     0  02:23      1.26    0.56    1.00
  YS02001590YS02001593 CONDUIT    317.95     0  02:31      1.12    2.00    1.00
  YS02001593YS02001596 CONDUIT    317.90     0  02:23      1.74    0.50    1.00
  YS02001596YS02001600 CONDUIT    318.00     0  02:30      1.25    0.62    1.00
  YS02001600YS02001601 CONDUIT    317.84     0  02:30      1.12    0.55    1.00
  YS02001601YS02001602 CONDUIT    492.03     0  02:14      1.74    1.78    1.00
  YS02001602YS02001605 CONDUIT    492.07     0  02:14      1.74   10.41    1.00
  YS02001605YS02001607 CONDUIT    491.54     0  02:14      1.74    2.70    1.00
  YS02001607YS02001610 CONDUIT    492.13     0  02:14      0.63    0.47    1.00
  YS02001610YS02001613 CONDUIT    493.18     0  02:13      0.63    0.57    1.00
  YS02001613YS02001616 CONDUIT    493.14     0  02:13      0.63    0.42    1.00
  YS02001616YS02001619 CONDUIT    490.09     0  02:14      0.65    0.85    1.00
  YS02001619YS02001622 CONDUIT    906.43     0  02:17      1.16    1.34    1.00
  YS02001622YS02001625 CONDUIT    906.97     0  02:17      1.15    0.48    1.00
  YS02001625YS02001629 CONDUIT    906.80     0  02:17      1.15    0.43    1.00
  YS02001629YS02163301 CONDUIT    903.85     0  02:16      1.15    1.11    1.00
  YS02001633YS02163601 CONDUIT   1274.08     0  02:17      1.62    1.34    1.00
  YS02001641YS02001644 CONDUIT   1279.91     0  02:17      1.63    4.14    1.00
  YS02001644YS02001647 CONDUIT   1602.69     0  02:18      2.07    0.94    1.00
  YS02001647YS02001649 CONDUIT   1602.36     0  02:17      2.21    0.85    1.00
  YS02001649YS02001757 CONDUIT   1773.98     0  02:19      2.26    1.08    1.00
  YS02001652YS02001649 CONDUIT    731.51     0  02:25      0.93    0.36    1.00
  YS02001655YS02001652 CONDUIT    729.04     0  02:25      1.24    0.35    1.00
  YS02001658YS02001655 CONDUIT    727.87     0  02:25      1.82    0.31    1.00
  YS02001661YS02001658 CONDUIT    726.51     0  02:25      2.15    0.29    1.00
  YS02001664YS02001661 CONDUIT    867.90     0  02:25      2.06    0.27    0.72
  YS02001745YS02001748 CONDUIT    488.76     0  02:21      1.94    0.19    0.87
  YS02001748YS02001751 CONDUIT    411.93     0  02:25      1.54    0.21    1.00
  YS02001751YS02001754 CONDUIT    411.83     0  02:25      1.37    0.20    1.00
  YS02001754YS02001757 CONDUIT    412.00     0  02:25      0.52    0.17    1.00
  YS02001757CaochengTiaoxuchi CONDUIT   2983.77     0  02:24      3.80    1.29    1.00
  YS02001759YS02001757 CONDUIT   1221.72     0  02:24      1.56    0.87    1.00
  YS02001762YS02001759 CONDUIT    672.29     0  02:23      0.86    0.77    1.00
  YS02001765YS02001762 CONDUIT    672.27     0  02:23      0.86    0.63    1.00
  YS02001767YS02001765 CONDUIT    672.76     0  02:23      0.86    0.85    1.00
  YS02001770YS02001767 CONDUIT    672.69     0  02:23      0.86    2.66    1.00
  YS02001774YS02001770 CONDUIT    228.67     0  02:17      0.29    0.15    1.00
  YS02001779YS02001774 CONDUIT    230.51     0  02:17      0.29    0.12    1.00
  YS02001783YS02001784 CONDUIT   1159.51     0  02:24      2.31    1.60    1.00
  YS02001784YS02001785 CONDUIT   1161.17     0  02:24      2.31    2.70    1.00
  YS02001786YS02001788 CONDUIT   1161.56     0  02:24      2.47    2.24    0.89
  YS02001788YS02001790 CONDUIT   1168.60     0  02:22      2.71    0.86    0.84
  YS02001790YS02001791 CONDUIT   1293.54     0  02:24      3.44    1.41    0.70
  YS02001791YS02001793 CONDUIT   1253.69     0  02:25      6.46    0.54    0.45
  YS02001793JiankangQianchi CONDUIT   1218.06     0  02:22      2.32    0.10    0.65
  YS02001882YS02001884 CONDUIT     28.67     0  02:18      0.12    0.03    1.00
  YS02001884YS02001887 CONDUIT     53.10     0  02:17      0.09    0.07    1.00
  YS02001887YS02001890 CONDUIT    620.96     0  02:25      0.79    1.06    1.00
  YS02001890YS02001895 CONDUIT    516.50     0  02:26      0.66    0.24    1.00
  YS02001895YS02001898 CONDUIT    516.95     0  02:26      0.66    0.90    1.00
  YS02001898YS02001901 CONDUIT    516.35     0  02:26      0.66    0.33    1.00
  YS02001901YS02001904 CONDUIT    516.25     0  02:26      0.66    0.80    1.00
  YS02001904YS02001907 CONDUIT    516.79     0  02:26      0.66    0.18    1.00
  YS02001907YS02006553 CONDUIT    797.51     0  02:35      0.89    0.94    1.00
  YS02001910YS02001907 CONDUIT   1084.55     0  02:25      1.38    0.61    1.00
  YS02001915YS02001910 CONDUIT   1084.46     0  02:25      1.38    0.54    1.00
  YS02001918YS02001915 CONDUIT    460.64     0  02:22      0.59    0.25    1.00
  YS02001920YS02001918 CONDUIT    459.13     0  02:22      0.65    0.44    1.00
  YS02001923YS02001920 CONDUIT    455.25     0  02:22      0.71    0.20    1.00
  YS02001926YS02001923 CONDUIT    430.19     0  02:21      0.96    0.61    1.00
  YS02001929YS02001926 CONDUIT    424.56     0  02:21      1.11    0.20    1.00
  YS02006553YS02006556 CONDUIT    796.83     0  02:35      1.01    0.68    1.00
  YS02006556YS02006558 CONDUIT    799.22     0  02:35      1.02    0.63    1.00
  YS02006558YS02006561 CONDUIT   1158.69     0  02:23      4.10    2.56    1.00
  YS02006561YS02001783 CONDUIT   1159.15     0  02:24      2.31    0.60    1.00
  YS02163301YS02001633 CONDUIT    904.03     0  02:17      1.15    0.85    1.00
  YS02163601YS02164001 CONDUIT   1274.04     0  02:17      1.62    1.13    1.00
  YS02164001YS02001641 CONDUIT   1277.02     0  02:17      1.63    1.74    1.00
  CC-R1                PUMP       683.00     0  00:00              1.00
  CC-R2                PUMP       683.00     0  00:00              1.00
  CC-S1                PUMP       200.00     0  00:00              1.00
  CC-S2                PUMP       200.00     0  00:00              1.00
  JK-R1                PUMP      1000.00     0  00:00              1.00
  JK-R2                PUMP      1000.00     0  00:00              1.00
  JK-S                 PUMP       300.00     0  00:00              1.00
  XR-1                 PUMP        95.00     0  00:00              1.00
  XR-2                 PUMP        95.00     0  00:00              1.00
  XR-3                 PUMP        95.00     0  00:00              1.00
  XR-4                 PUMP        95.00     0  00:00              1.00
  
  
  ***************************
  Flow Classification Summary
  ***************************
  
  -------------------------------------------------------------------------------------
                      Adjusted    ---------- Fraction of Time in Flow Class ---------- 
                       /Actual         Up    Down  Sub   Sup   Up    Down  Norm  Inlet 
  Conduit               Length    Dry  Dry   Dry   Crit  Crit  Crit  Crit  Ltd   Ctrl  
  -------------------------------------------------------------------------------------
  1                       1.00   0.00  0.00  0.00  0.00  1.00  0.00  0.00  0.19  0.00
  WS02001211WS02001212    1.00   0.00  0.02  0.00  0.98  0.00  0.00  0.00  0.00  0.00
  WS02001212WS02001213    1.00   0.02  0.00  0.00  0.22  0.00  0.76  0.00  0.00  0.00
  WS02001213WS02003059    1.00   0.00  0.01  0.00  0.99  0.00  0.00  0.00  0.00  0.00
  WS02003059WS02003060    1.00   0.00  0.00  0.00  1.00  0.00  0.00  0.00  0.03  0.00
  WS02003060WS02003069    1.00   0.00  0.00  0.00  0.98  0.02  0.00  0.00  0.66  0.00
  WS02003066WSF200        1.00   0.13  0.00  0.00  0.00  0.87  0.00  0.00  0.77  0.00
  WS02003067WS02003066    1.00   0.10  0.02  0.00  0.88  0.00  0.00  0.00  0.00  0.00
  WS02003069WS02003072    1.00   0.00  0.00  0.00  1.00  0.00  0.00  0.00  0.75  0.00
  WS02003072WS02003073    1.00   0.00  0.00  0.00  0.00  0.00  0.00  1.00  0.00  0.00
  WS02004138WS02004139    1.00   0.00  0.00  0.00  0.97  0.01  0.00  0.02  0.98  0.00
  WS02004139WS02001211    1.00   0.00  0.00  0.00  0.99  0.00  0.00  0.00  0.00  0.00
  WS02004401WS02004402    1.00   0.02  0.00  0.00  0.98  0.00  0.00  0.00  0.00  0.00
  WS02004402WS02004403    1.00   0.02  0.00  0.00  0.97  0.00  0.00  0.00  0.00  0.00
  WS02004403WS02004404    1.00   0.00  0.03  0.00  0.97  0.00  0.00  0.00  0.00  0.00
  WS02004404WS02004405    1.00   0.00  0.00  0.00  1.00  0.00  0.00  0.00  0.01  0.00
  WS02004405WS02004406    1.00   0.00  0.00  0.00  1.00  0.00  0.00  0.00  0.00  0.00
  WS02004406WS02004407    1.00   0.00  0.05  0.00  0.95  0.00  0.00  0.00  0.00  0.00
  WS02004407WS02004409    1.00   0.05  0.00  0.00  0.94  0.01  0.00  0.00  0.94  0.00
  WS02004409WS02004410    1.00   0.05  0.00  0.00  0.95  0.00  0.00  0.00  0.03  0.00
  WS02004410WS02004411    1.00   0.05  0.00  0.00  0.95  0.00  0.00  0.00  0.01  0.00
  WS02004411WS02004412    1.00   0.05  0.00  0.00  0.95  0.00  0.00  0.00  0.00  0.00
  WS02004412WS02004413    1.00   0.05  0.00  0.00  0.94  0.00  0.00  0.00  0.01  0.00
  WS02004413WS02003067    1.00   0.06  0.04  0.00  0.00  0.00  0.90  0.00  0.00  0.00
  WS02006109WS02006110    1.00   0.00  0.01  0.00  0.98  0.00  0.01  0.00  0.00  0.00
  WS02006110WS02006113    1.00   0.01  0.01  0.00  0.98  0.00  0.00  0.00  0.00  0.00
  WS02006111WS02006112    1.00   0.02  0.00  0.00  0.98  0.00  0.00  0.00  0.98  0.00
  WS02006112WS02006115    1.00   0.02  0.00  0.00  0.97  0.00  0.00  0.00  0.00  0.00
  WS02006113WS02006111    1.00   0.02  0.00  0.00  0.00  0.98  0.00  0.00  0.09  0.00
  WS02006115WS02006116    1.00   0.02  0.00  0.00  0.97  0.00  0.00  0.01  0.00  0.00
  WS02006116WS02004401    1.00   0.02  0.00  0.00  0.98  0.00  0.00  0.00  0.00  0.00
  WS02006228WS02006109    1.00   0.00  0.00  0.00  1.00  0.00  0.00  0.00  0.00  0.00
  WS02006229WS02006228    1.00   0.00  0.00  0.00  0.99  0.00  0.00  0.01  0.00  0.00
  WS02006230WS02006229    1.00   0.00  0.00  0.00  0.99  0.00  0.00  0.01  0.01  0.00
  WS02006231WS02006230    1.00   0.00  0.00  0.00  0.21  0.00  0.79  0.00  0.00  0.00
  WS02006232WS02006231    1.00   0.00  0.00  0.00  0.98  0.00  0.01  0.00  0.00  0.00
  WS02006234WS02006232    1.00   0.00  0.00  0.00  1.00  0.00  0.00  0.00  0.26  0.00
  WS02006235WS02006234    1.00   0.00  0.00  0.00  0.66  0.00  0.34  0.00  0.00  0.00
  WS02006238WS02006235    1.00   0.00  0.00  0.00  1.00  0.00  0.00  0.00  0.00  0.00
  WS02006239WS02006238    1.00   0.00  0.00  0.00  1.00  0.00  0.00  0.00  0.47  0.00
  WS02006240WS02006239    1.00   0.00  0.00  0.00  0.45  0.00  0.00  0.54  0.02  0.00
  WS02006242WS02006240    1.00   0.00  0.00  0.00  0.99  0.00  0.00  0.00  0.01  0.00
  WS02006243WS02006242    1.00   0.00  0.00  0.00  0.99  0.00  0.00  0.01  0.72  0.00
  WS02006245WS02006243    1.00   0.00  0.00  0.00  0.46  0.00  0.00  0.54  0.01  0.00
  WS02006247WS02006245    1.00   0.00  0.00  0.00  0.99  0.00  0.00  0.01  0.00  0.00
  WS02006248WS02006247    1.00   0.00  0.00  0.00  0.99  0.00  0.00  0.01  0.20  0.00
  WS02006249WS02006248    1.00   0.00  0.00  0.00  0.31  0.00  0.69  0.00  0.00  0.00
  WS02006251WS02006249    1.00   0.00  0.00  0.00  0.99  0.01  0.00  0.00  0.73  0.00
  WS02006252WS02006251    1.00   0.00  0.56  0.00  0.09  0.00  0.35  0.00  0.00  0.00
  WS02006256WS02006235    1.00   0.00  0.00  0.00  0.99  0.01  0.00  0.00  0.00  0.00
  WSF200WS02003060        1.00   0.00  0.13  0.00  0.68  0.19  0.00  0.00  0.66  0.00
  YS02001580YS02001583    1.00   0.28  0.55  0.00  0.17  0.00  0.00  0.00  0.64  0.00
  YS02001583YS02001586    1.00   0.48  0.30  0.00  0.22  0.00  0.00  0.00  0.65  0.00
  YS02001586YS02001590    1.00   0.13  0.00  0.00  0.41  0.04  0.00  0.43  0.36  0.00
  YS02001590YS02001593    1.00   0.13  0.01  0.00  0.10  0.00  0.77  0.00  0.00  0.00
  YS02001593YS02001596    1.00   0.13  0.00  0.00  0.11  0.01  0.00  0.74  0.02  0.00
  YS02001596YS02001600    1.00   0.14  0.00  0.00  0.18  0.01  0.00  0.67  0.05  0.00
  YS02001600YS02001601    1.00   0.13  0.01  0.00  0.86  0.00  0.00  0.00  0.62  0.00
  YS02001601YS02001602    1.00   0.13  0.01  0.00  0.87  0.00  0.00  0.00  0.00  0.00
  YS02001602YS02001605    1.00   0.13  0.00  0.00  0.86  0.00  0.00  0.00  0.00  0.00
  YS02001605YS02001607    1.00   0.14  0.00  0.00  0.86  0.00  0.00  0.00  0.00  0.00
  YS02001607YS02001610    1.00   0.13  0.01  0.00  0.86  0.00  0.00  0.00  0.01  0.00
  YS02001610YS02001613    1.00   0.13  0.00  0.00  0.87  0.00  0.00  0.00  0.00  0.00
  YS02001613YS02001616    1.00   0.13  0.00  0.00  0.87  0.00  0.00  0.00  0.00  0.00
  YS02001616YS02001619    1.00   0.13  0.00  0.00  0.87  0.00  0.00  0.00  0.00  0.00
  YS02001619YS02001622    1.00   0.13  0.00  0.00  0.87  0.00  0.00  0.00  0.33  0.00
  YS02001622YS02001625    1.00   0.13  0.00  0.00  0.87  0.00  0.00  0.00  0.04  0.00
  YS02001625YS02001629    1.00   0.13  0.05  0.00  0.14  0.00  0.68  0.00  0.00  0.00
  YS02001629YS02163301    1.00   0.15  0.01  0.00  0.84  0.00  0.00  0.00  0.00  0.00
  YS02001633YS02163601    1.00   0.00  0.01  0.00  0.99  0.00  0.00  0.00  0.15  0.00
  YS02001641YS02001644    1.00   0.00  0.01  0.00  0.99  0.00  0.00  0.00  0.00  0.00
  YS02001644YS02001647    1.00   0.00  0.17  0.00  0.83  0.00  0.00  0.00  0.00  0.00
  YS02001647YS02001649    1.00   0.00  0.17  0.00  0.54  0.28  0.00  0.00  0.58  0.00
  YS02001649YS02001757    1.00   0.00  0.00  0.00  0.70  0.30  0.00  0.00  0.51  0.00
  YS02001652YS02001649    1.00   0.00  0.00  0.00  0.96  0.04  0.00  0.00  0.76  0.00
  YS02001655YS02001652    1.00   0.00  0.00  0.00  0.16  0.02  0.00  0.82  0.05  0.00
  YS02001658YS02001655    1.00   0.00  0.14  0.00  0.65  0.21  0.00  0.00  0.71  0.00
  YS02001661YS02001658    1.00   0.14  0.00  0.00  0.52  0.34  0.00  0.00  0.72  0.00
  YS02001664YS02001661    1.00   0.13  0.00  0.00  0.78  0.10  0.00  0.00  0.86  0.00
  YS02001745YS02001748    1.00   0.00  0.00  0.00  0.08  0.01  0.00  0.92  0.04  0.00
  YS02001748YS02001751    1.00   0.00  0.00  0.00  0.82  0.18  0.00  0.00  0.75  0.00
  YS02001751YS02001754    1.00   0.00  0.00  0.00  0.14  0.00  0.00  0.86  0.03  0.00
  YS02001754YS02001757    1.00   0.00  0.00  0.00  1.00  0.00  0.00  0.00  0.85  0.00
  YS02001757CaochengTiaoxuchi    1.00   0.00  0.00  0.00  1.00  0.00  0.00  0.00  0.84  0.00
  YS02001759YS02001757    1.00   0.00  0.00  0.00  1.00  0.00  0.00  0.00  0.62  0.00
  YS02001762YS02001759    1.00   0.00  0.00  0.00  1.00  0.00  0.00  0.00  0.05  0.00
  YS02001765YS02001762    1.00   0.00  0.00  0.00  1.00  0.00  0.00  0.00  0.73  0.00
  YS02001767YS02001765    1.00   0.00  0.00  0.00  1.00  0.00  0.00  0.00  0.00  0.00
  YS02001770YS02001767    1.00   0.00  0.00  0.00  1.00  0.00  0.00  0.00  0.00  0.00
  YS02001774YS02001770    1.00   0.00  0.13  0.00  0.61  0.00  0.26  0.00  0.03  0.00
  YS02001779YS02001774    1.00   0.00  0.00  0.00  1.00  0.00  0.00  0.00  0.77  0.00
  YS02001783YS02001784    1.00   0.00  0.18  0.00  0.82  0.00  0.00  0.00  0.57  0.00
  YS02001784YS02001785    1.00   0.00  0.00  0.00  1.00  0.00  0.00  0.00  0.17  0.00
  YS02001786YS02001788    1.00   0.00  0.00  0.00  0.79  0.21  0.00  0.00  0.00  0.00
  YS02001788YS02001790    1.00   0.00  0.00  0.00  0.21  0.79  0.00  0.00  0.81  0.00
  YS02001790YS02001791    1.00   0.00  0.00  0.00  0.01  0.99  0.00  0.00  0.16  0.00
  YS02001791YS02001793    1.00   0.00  0.00  0.00  0.00  1.00  0.00  0.00  0.01  0.00
  YS02001793JiankangQianchi    1.00   0.00  0.00  0.00  1.00  0.00  0.00  0.00  0.96  0.00
  YS02001882YS02001884    1.00   0.15  0.01  0.00  0.84  0.00  0.00  0.00  0.00  0.00
  YS02001884YS02001887    1.00   0.06  0.05  0.00  0.89  0.00  0.00  0.00  0.00  0.00
  YS02001887YS02001890    1.00   0.00  0.00  0.00  0.97  0.00  0.03  0.00  0.00  0.00
  YS02001890YS02001895    1.00   0.00  0.16  0.00  0.83  0.00  0.00  0.00  0.00  0.00
  YS02001895YS02001898    1.00   0.17  0.00  0.00  0.81  0.00  0.02  0.00  0.00  0.00
  YS02001898YS02001901    1.00   0.17  0.00  0.00  0.83  0.00  0.00  0.00  0.01  0.00
  YS02001901YS02001904    1.00   0.17  0.00  0.00  0.83  0.00  0.00  0.00  0.00  0.00
  YS02001904YS02001907    1.00   0.00  0.16  0.00  0.83  0.00  0.00  0.00  0.00  0.00
  YS02001907YS02006553    1.00   0.00  0.02  0.00  0.98  0.00  0.00  0.00  0.00  0.00
  YS02001910YS02001907    1.00   0.00  0.00  0.00  0.97  0.00  0.00  0.03  0.12  0.00
  YS02001915YS02001910    1.00   0.00  0.00  0.00  0.97  0.03  0.00  0.00  0.16  0.00
  YS02001918YS02001915    1.00   0.00  0.01  0.00  0.98  0.02  0.00  0.00  0.77  0.00
  YS02001920YS02001918    1.00   0.00  0.01  0.00  0.99  0.00  0.00  0.00  0.00  0.00
  YS02001923YS02001920    1.00   0.00  0.00  0.00  1.00  0.00  0.00  0.00  0.94  0.00
  YS02001926YS02001923    1.00   0.00  0.07  0.00  0.04  0.00  0.88  0.00  0.00  0.00
  YS02001929YS02001926    1.00   0.00  0.13  0.00  0.87  0.00  0.00  0.00  0.84  0.00
  YS02006553YS02006556    1.00   0.01  0.00  0.00  0.99  0.00  0.00  0.00  0.03  0.00
  YS02006556YS02006558    1.00   0.00  0.00  0.00  1.00  0.00  0.00  0.00  0.00  0.00
  YS02006558YS02006561    1.00   0.18  0.00  0.00  0.04  0.78  0.00  0.00  0.18  0.00
  YS02006561YS02001783    1.00   0.18  0.00  0.00  0.07  0.75  0.00  0.00  0.71  0.00
  YS02163301YS02001633    1.00   0.00  0.15  0.00  0.85  0.00  0.00  0.00  0.00  0.00
  YS02163601YS02164001    1.00   0.00  0.08  0.00  0.92  0.00  0.00  0.00  0.00  0.00
  YS02164001YS02001641    1.00   0.01  0.07  0.00  0.92  0.00  0.00  0.00  0.05  0.00
  
  
  *************************
  Conduit Surcharge Summary
  *************************
  
  ----------------------------------------------------------------------------
                                                           Hours        Hours 
                         --------- Hours Full --------   Above Full   Capacity
  Conduit                Both Ends  Upstream  Dnstream   Normal Flow   Limited
  ----------------------------------------------------------------------------
  WS02003072WS02003073        0.01      0.01      0.01      1.72         0.01
  WS02004404WS02004405        0.01      0.01      0.01      2.00         0.01
  WS02004405WS02004406        0.01      0.01      0.01      0.60         0.01
  WS02006109WS02006110        0.52      0.52      1.60      0.65         0.01
  WS02006110WS02006113        0.01      0.01      1.58      0.01         0.01
  WS02006111WS02006112        0.01      0.01      1.68      0.01         0.01
  WS02006112WS02006115        0.01      0.01      0.66      0.01         0.01
  WS02006228WS02006109        1.54      1.60      1.54      1.78         1.54
  WS02006229WS02006228        1.54      1.57      1.54      1.71         1.53
  WS02006230WS02006229        1.63      1.68      1.63      2.77         1.63
  WS02006231WS02006230        0.54      0.54      0.73      2.35         0.01
  WS02006232WS02006231        0.68      0.68      1.60      0.75         0.01
  WS02006234WS02006232        1.48      1.48      1.60      0.73         0.73
  WS02006235WS02006234        0.94      0.95      1.52      2.17         0.02
  WS02006238WS02006235        1.54      1.54      1.60      0.01         0.01
  WS02006239WS02006238        1.53      1.55      1.57      1.50         1.32
  WS02006240WS02006239        1.49      1.52      1.50      1.52         1.25
  WS02006242WS02006240        1.51      1.51      1.53      1.60         0.01
  WS02006243WS02006242        1.50      1.50      1.51      0.01         0.05
  WS02006245WS02006243        1.49      1.49      1.50      0.96         0.95
  WS02006247WS02006245        1.49      1.49      1.49      1.84         1.47
  WS02006248WS02006247        1.48      1.48      1.49      0.01         0.05
  WS02006249WS02006248        1.48      1.48      1.48      1.82         0.01
  WS02006251WS02006249        1.48      1.48      1.48      1.58         1.42
  WS02006252WS02006251        1.65      1.65      1.65      1.65         0.01
  WS02006256WS02006235        2.19      2.24      4.16      1.18         0.01
  YS02001580YS02001583        0.46      0.47      0.51      0.01         0.01
  YS02001583YS02001586        0.48      0.48      0.57      0.01         0.01
  YS02001586YS02001590        0.58      0.58      0.64      0.01         0.01
  YS02001590YS02001593        0.65      0.65      0.66      0.66         0.01
  YS02001593YS02001596        0.66      0.66      0.76      0.01         0.01
  YS02001596YS02001600        0.81      0.81      0.91      0.01         0.01
  YS02001600YS02001601        0.99      0.99      1.26      0.01         0.01
  YS02001601YS02001602        1.15      1.15      1.30      0.91         0.01
  YS02001602YS02001605        1.10      1.10      1.15      2.17         0.01
  YS02001605YS02001607        1.05      1.10      1.05      1.22         1.05
  YS02001607YS02001610        0.63      0.63      0.65      0.01         0.01
  YS02001610YS02001613        0.62      0.62      0.65      0.01         0.01
  YS02001613YS02001616        0.58      0.58      0.62      0.01         0.01
  YS02001616YS02001619        0.57      0.57      0.58      0.01         0.01
  YS02001619YS02001622        0.57      0.57      0.57      0.65         0.53
  YS02001622YS02001625        0.57      0.57      0.74      0.01         0.01
  YS02001625YS02001629        0.53      0.53      0.74      0.01         0.01
  YS02001629YS02163301        0.74      0.74      0.75      0.07         0.13
  YS02001633YS02163601        0.77      0.77      0.80      0.28         0.27
  YS02001641YS02001644        0.67      0.71      0.67      1.36         0.66
  YS02001644YS02001647        0.49      0.49      0.67      0.01         0.01
  YS02001647YS02001649        0.49      0.49      0.60      0.01         0.01
  YS02001649YS02001757        0.60      0.60      0.67      0.05         0.04
  YS02001652YS02001649        0.45      0.45      0.60      0.01         0.01
  YS02001655YS02001652        0.31      0.31      0.43      0.01         0.01
  YS02001658YS02001655        0.16      0.16      0.31      0.01         0.01
  YS02001661YS02001658        0.01      0.01      0.16      0.01         0.01
  YS02001664YS02001661        0.01      0.01      0.02      0.01         0.01
  YS02001745YS02001748        0.01      0.01      0.10      0.01         0.01
  YS02001748YS02001751        0.14      0.14      0.23      0.01         0.01
  YS02001751YS02001754        0.23      0.23      0.36      0.01         0.01
  YS02001754YS02001757        0.39      0.39      0.67      0.01         0.01
  YS02001757CaochengTiaoxuchi        0.67      0.67      1.28      0.25         0.25
  YS02001759YS02001757        0.57      0.57      0.67      0.01         0.01
  YS02001762YS02001759        0.54      0.54      0.57      0.01         0.02
  YS02001765YS02001762        0.50      0.50      0.54      0.01         0.01
  YS02001767YS02001765        0.47      0.47      0.50      0.01         0.01
  YS02001770YS02001767        0.47      0.47      0.47      0.33         0.30
  YS02001774YS02001770        0.46      0.46      0.53      0.01         0.01
  YS02001779YS02001774        0.35      0.35      0.53      0.01         0.01
  YS02001783YS02001784        0.36      0.38      0.36      0.54         0.36
  YS02001784YS02001785        0.26      0.36      0.26      0.76         0.26
  YS02001786YS02001788        0.01      0.26      0.01      0.64         0.01
  YS02001790YS02001791        0.01      0.01      0.01      0.35         0.01
  YS02001793JiankangQianchi        0.01      0.01      7.70      0.01         0.01
  YS02001882YS02001884        0.33      0.33      0.34      0.01         0.01
  YS02001884YS02001887        0.37      0.37      0.38      0.01         0.01
  YS02001887YS02001890        0.39      0.39      0.40      0.03         0.01
  YS02001890YS02001895        0.32      0.32      0.42      0.01         0.01
  YS02001895YS02001898        0.32      0.32      0.32      0.01         0.01
  YS02001898YS02001901        0.33      0.33      0.36      0.01         0.01
  YS02001901YS02001904        0.35      0.35      0.36      0.01         0.01
  YS02001904YS02001907        0.35      0.35      0.63      0.01         0.01
  YS02001907YS02006553        0.77      0.77      0.84      0.01         0.01
  YS02001910YS02001907        0.41      0.41      0.60      0.01         0.01
  YS02001915YS02001910        0.33      0.33      0.41      0.01         0.01
  YS02001918YS02001915        0.25      0.25      0.33      0.01         0.01
  YS02001920YS02001918        0.25      0.25      0.26      0.01         0.01
  YS02001923YS02001920        0.21      0.21      0.26      0.01         0.01
  YS02001926YS02001923        0.02      0.02      0.03      0.01         0.01
  YS02001929YS02001926        0.01      0.01      0.03      0.01         0.01
  YS02006553YS02006556        0.51      0.51      0.63      0.01         0.01
  YS02006556YS02006558        0.57      0.57      0.65      0.01         0.01
  YS02006558YS02006561        0.28      0.49      0.28      0.72         0.28
  YS02006561YS02001783        0.22      0.22      0.38      0.01         0.01
  YS02163301YS02001633        0.75      0.75      0.79      0.01         0.01
  YS02163601YS02164001        0.71      0.71      0.80      0.08         0.01
  YS02164001YS02001641        0.71      0.71      0.71      0.60         0.51
  
  
  ***************
  Pumping Summary
  ***************
  
  ---------------------------------------------------------------------------------------------------------
                                                  Min       Avg       Max     Total     Power    % Time Off
                        Percent   Number of      Flow      Flow      Flow    Volume     Usage    Pump Curve
  Pump                 Utilized   Start-Ups       LPS       LPS       LPS  10^6 ltr     Kw-hr    Low   High
  ---------------------------------------------------------------------------------------------------------
  CC-R1                   18.73          10      0.00    683.00    683.00     3.685     68.12    0.0   24.1
  CC-R2                   17.12          10      0.00    683.00    683.00     3.368     62.26    0.0   26.4
  CC-S1                   23.52          10      0.00    200.00    200.00     1.355      7.77    0.0    0.0
  CC-S2                   20.58          10      0.00    200.00    200.00     1.185      6.76    0.0    0.0
  JK-R1                    7.24          12      0.00   1000.00   1000.00     2.085     24.63    0.0    0.0
  JK-R2                    0.16           1      0.00   1000.00   1000.00     0.047      0.36    0.0    0.0
  JK-S                    14.63          20      0.00    300.00    300.00     1.264     17.12    0.0    0.0
  XR-1                    97.91           2      0.00     95.00     95.00     2.679      9.60    0.0    0.0
  XR-2                    93.94           2      0.00     95.00     95.00     2.570      8.76    0.0    0.0
  XR-3                     0.00           1      0.00     95.00     95.00     0.000      0.00    0.0    0.0
  XR-4                     0.00           1      0.00     95.00     95.00     0.000      0.00    0.0    0.0
  

  Analysis begun on:  Wed Nov  5 16:32:02 2025
  Analysis ended on:  Wed Nov  5 16:32:04 2025
  Total elapsed time: 00:00:02