
  EPA STORM WATER MANAGEMENT MODEL - VERSION 5.2 (Build 5.2.4)
  PYSWMM TOOLKIT API - VERSION v1.0 (2023-11-27)
  ------------------------------------------------------------

  WARNING 04: minimum elevation drop used for Conduit WS02004404WS02004405
  WARNING 03: negative offset ignored for Link YS02001904YS02001907
  
  ****************
  Analysis Options
  ****************
  Flow Units ............... LPS
  Process Models:
    Rainfall/Runoff ........ YES
    RDII ................... NO
    Snowmelt ............... NO
    Groundwater ............ NO
    Flow Routing ........... YES
    Ponding Allowed ........ NO
    Water Quality .......... NO
  Infiltration Method ...... HORTON
  Flow Routing Method ...... DYNWAVE
  Surcharge Method ......... EXTRAN
  Starting Date ............ 08/28/2015 08:00:00
  Ending Date .............. 08/28/2015 16:00:00
  Antecedent Dry Days ...... 8.0
  Report Time Step ......... 00:01:00
  Wet Time Step ............ 00:01:00
  Dry Time Step ............ 00:01:00
  Routing Time Step ........ 30.00 sec
  Variable Time Step ....... YES
  Maximum Trials ........... 8
  Number of Threads ........ 4
  Head Tolerance ........... 0.001500 m
  
  
  **************************        Volume         Depth
  Runoff Quantity Continuity     hectare-m            mm
  **************************     ---------       -------
  Initial LID Storage ......         0.049         1.488
  Total Precipitation ......         1.840        55.471
  Evaporation Loss .........         0.000         0.000
  Infiltration Loss ........         0.074         2.224
  Surface Runoff ...........         1.353        40.792
  Final Storage ............         0.463        13.960
  Continuity Error (%) .....        -0.032
  
  
  **************************        Volume        Volume
  Flow Routing Continuity        hectare-m      10^6 ltr
  **************************     ---------     ---------
  Dry Weather Inflow .......         0.602         6.020
  Wet Weather Inflow .......         1.353        13.531
  Groundwater Inflow .......         0.000         0.000
  RDII Inflow ..............         0.000         0.000
  External Inflow ..........         0.105         1.045
  External Outflow .........         1.704        17.037
  Flooding Loss ............         0.292         2.917
  Evaporation Loss .........         0.000         0.000
  Exfiltration Loss ........         0.000         0.000
  Initial Stored Volume ....         0.303         3.031
  Final Stored Volume ......         0.374         3.737
  Continuity Error (%) .....        -0.271
  
  
  *************************
  Highest Continuity Errors
  *************************
  Node YS02001583 (-11.96%)
  Node YS02001884 (4.97%)
  Node YS02001774 (1.48%)
  Node WS02006256 (-1.33%)
  
  
  ***************************
  Time-Step Critical Elements
  ***************************
  Link WS02004404WS02004405 (41.29%)
  Link WS02006238WS02006235 (19.32%)
  Link WS02003066WSF200 (8.59%)
  Link YS02001791YS02001793 (7.49%)
  Link WS02006252WS02006251 (5.50%)
  
  
  ********************************
  Highest Flow Instability Indexes
  ********************************
  Link WS02006113WS02006111 (27)
  Link WS02006252WS02006251 (21)
  Link WS02004404WS02004405 (21)
  Link WS02006238WS02006235 (20)
  Link WS02004403WS02004404 (19)
  
  
  *********************************
  Most Frequent Nonconverging Nodes
  *********************************
  Node CC-1 (23.33%)
  Node CC-2 (23.33%)
  Node JK-1 (23.33%)
  Node JK-2 (23.33%)
  Node WSC (23.33%)
  
  
  *************************
  Routing Time Step Summary
  *************************
  Minimum Time Step           :     0.00 sec
  Average Time Step           :     3.62 sec
  Maximum Time Step           :     7.04 sec
  % of Time in Steady State   :     0.00
  Average Iterations per Step :     3.83
  % of Steps Not Converging   :    23.33
  Time Step Frequencies       :
     30.000 - 13.228 sec      :     0.00 %
     13.228 -  5.833 sec      :    28.12 %
      5.833 -  2.572 sec      :    31.73 %
      2.572 -  1.134 sec      :    27.08 %
      1.134 -  0.500 sec      :    13.07 %
  
  
  ***************************
  Subcatchment Runoff Summary
  ***************************
  
  ------------------------------------------------------------------------------------------------------------------------------
                            Total      Total      Total      Total     Imperv       Perv      Total       Total     Peak  Runoff
                           Precip      Runon       Evap      Infil     Runoff     Runoff     Runoff      Runoff   Runoff   Coeff
  Subcatchment                 mm         mm         mm         mm         mm         mm         mm    10^6 ltr      LPS
  ------------------------------------------------------------------------------------------------------------------------------
  sub60                     55.47       0.00       0.00       1.34      36.75       3.80      40.55        0.53   399.61   0.731
  sub61                     55.47       0.00       0.00       2.05      36.72       5.66      42.38        0.78   578.38   0.764
  sub62                     55.47       0.00       0.00       0.91      39.14       2.58      41.72        1.14   783.32   0.752
  sub63                     55.47       0.00       0.00       3.73      31.45       9.44      40.89        0.93   633.93   0.737
  sub64                     55.47       0.00       0.00       1.80      35.81       4.69      40.49        0.97   628.73   0.730
  sub65                     55.47       0.00       0.00       1.65      38.64       4.28      42.92        1.18   729.07   0.774
  sub66                     55.47       0.00       0.00       4.33      30.40       8.42      38.83        1.81   908.42   0.700
  sub67                     55.47       0.00       0.00       0.91      40.13       2.67      42.80        0.80   624.73   0.772
  sub68                     55.47       0.00       0.00       1.58      35.44       4.34      39.78        1.09   785.00   0.717
  sub69                     55.47       0.00       0.00       1.41      37.29       5.18      42.47        1.57   950.09   0.766
  sub70                     55.47       0.00       0.00       4.73      29.87      10.71      40.58        1.17   523.67   0.732
  sub71                     55.47       0.00       0.00       0.84      35.56       2.33      37.89        0.99   640.72   0.683
  sub72                     55.47       0.00       0.00       0.80      38.40       2.17      40.57        0.56   323.10   0.731
  

  ***********************
  LID Performance Summary
  ***********************

  --------------------------------------------------------------------------------------------------------------------
                                         Total      Evap     Infil   Surface    Drain    Initial     Final  Continuity
                                        Inflow      Loss      Loss   Outflow   Outflow   Storage   Storage       Error
  Subcatchment      LID Control             mm        mm        mm        mm        mm        mm        mm           %
  --------------------------------------------------------------------------------------------------------------------
  sub60             GreenRoof            55.47      0.00      0.00      0.00      0.00      7.05     62.54       -0.04
  sub61             GreenRoof            55.47      0.00      0.00      0.00      0.00      7.05     62.54       -0.04
  sub62             GreenRoof            55.47      0.00      0.00      0.00      0.00      7.05     62.54       -0.04
  sub63             GreenRoof            55.47      0.00      0.00      0.00      0.00      7.05     62.54       -0.04
  sub64             GreenRoof            55.47      0.00      0.00      0.00      0.00      7.05     62.54       -0.04
  sub65             GreenRoof            55.47      0.00      0.00      0.00      0.00      7.05     62.54       -0.04
  sub66             GreenRoof            55.47      0.00      0.00      0.00      0.00      7.05     62.54       -0.04
  sub67             GreenRoof            55.47      0.00      0.00      0.00      0.00      7.05     62.54       -0.04
  sub68             GreenRoof            55.47      0.00      0.00      0.00      0.00      7.05     62.54       -0.04
  sub69             GreenRoof            55.47      0.00      0.00      0.00      0.00      7.05     62.54       -0.04
  sub70             GreenRoof            55.47      0.00      0.00      0.00      0.00      7.05     62.54       -0.04
  sub71             GreenRoof            55.47      0.00      0.00      0.00      0.00      7.05     62.54       -0.04
  sub72             GreenRoof            55.47      0.00      0.00      0.00      0.00      7.05     62.54       -0.04
  
  ******************
  Node Depth Summary
  ******************
  
  ---------------------------------------------------------------------------------
                                 Average  Maximum  Maximum  Time of Max    Reported
                                   Depth    Depth      HGL   Occurrence   Max Depth
  Node                 Type       Meters   Meters   Meters  days hr:min      Meters
  ---------------------------------------------------------------------------------
  WS02001211           JUNCTION     0.60     0.64     5.48     0  02:21        0.64
  WS02001212           JUNCTION     0.33     0.38     5.44     0  02:19        0.38
  WS02001213           JUNCTION     0.53     0.65     5.41     0  02:18        0.65
  WS02003059           JUNCTION     0.59     0.71     5.40     0  02:19        0.71
  WS02003060           JUNCTION     0.30     0.45     5.38     0  02:17        0.45
  WS02003066           JUNCTION     0.16     0.30     5.85     0  02:13        0.30
  WS02003067           JUNCTION     0.42     0.70     6.02     0  02:13        0.70
  WS02003069           JUNCTION     0.33     0.50     5.09     0  02:14        0.50
  WS02003072           JUNCTION     0.40     0.57     4.94     0  02:15        0.57
  WS02003073           JUNCTION     0.23     0.34     4.41     0  02:15        0.34
  WS02004138           JUNCTION     0.13     0.14     7.39     0  00:29        0.14
  WS02004139           JUNCTION     0.54     0.58     5.49     0  02:17        0.58
  WS02004401           JUNCTION     0.52     0.87     6.87     0  02:10        0.87
  WS02004402           JUNCTION     0.55     0.90     6.86     0  02:10        0.90
  WS02004403           JUNCTION     0.57     0.91     6.84     0  02:11        0.91
  WS02004404           JUNCTION     0.65     1.00     6.85     0  02:11        1.00
  WS02004405           JUNCTION     0.64     0.96     6.81     0  02:10        0.96
  WS02004406           JUNCTION     0.65     0.95     6.78     0  02:11        0.95
  WS02004407           JUNCTION     0.13     0.29     6.61     0  02:11        0.29
  WS02004409           JUNCTION     0.30     0.66     6.43     0  02:12        0.66
  WS02004410           JUNCTION     0.33     0.68     6.40     0  02:12        0.68
  WS02004411           JUNCTION     0.35     0.69     6.37     0  02:12        0.68
  WS02004412           JUNCTION     0.38     0.69     6.33     0  02:12        0.69
  WS02004413           JUNCTION     0.53     0.85     6.32     0  02:13        0.85
  WS02006109           JUNCTION     0.56     1.14     7.75     0  02:23        0.99
  WS02006110           JUNCTION     0.57     1.18     7.76     0  02:24        0.94
  WS02006111           JUNCTION     0.14     0.29     6.99     0  02:19        0.29
  WS02006112           JUNCTION     0.66     1.09     6.97     0  02:18        1.07
  WS02006113           JUNCTION     0.21     0.46     7.35     0  02:28        0.46
  WS02006115           JUNCTION     0.40     0.77     6.91     0  02:10        0.77
  WS02006116           JUNCTION     0.49     0.85     6.89     0  02:10        0.85
  WS02006228           JUNCTION     0.55     1.32     7.97     0  02:23        1.13
  WS02006229           JUNCTION     0.52     1.38     8.07     0  02:23        1.18
  WS02006230           JUNCTION     0.52     1.63     8.38     0  02:23        1.35
  WS02006231           JUNCTION     0.33     1.47     8.59     0  01:55        1.08
  WS02006232           JUNCTION     0.46     1.46     8.50     0  01:55        1.24
  WS02006234           JUNCTION     0.38     1.57     8.72     0  02:25        1.21
  WS02006235           JUNCTION     0.42     1.61     8.77     0  02:25        1.33
  WS02006238           JUNCTION     0.45     1.65     8.80     0  02:25        1.37
  WS02006239           JUNCTION     0.41     1.59     8.79     0  02:25        1.36
  WS02006240           JUNCTION     0.38     1.53     8.82     0  02:25        1.34
  WS02006242           JUNCTION     0.43     1.54     8.81     0  02:25        1.39
  WS02006243           JUNCTION     0.37     1.36     8.78     0  02:25        1.28
  WS02006245           JUNCTION     0.37     1.28     8.77     0  02:25        1.22
  WS02006247           JUNCTION     0.38     1.24     8.74     0  02:25        1.19
  WS02006248           JUNCTION     0.36     1.10     8.69     0  01:55        1.10
  WS02006249           JUNCTION     0.38     1.09     8.69     0  01:54        1.09
  WS02006251           JUNCTION     0.38     1.42     9.09     0  01:54        1.26
  WS02006252           JUNCTION     0.26     1.50     9.74     0  00:00        0.81
  WS02006256           JUNCTION     0.99     2.35     9.28     0  00:00        2.35
  WSF200               JUNCTION     0.13     0.30     5.54     0  02:16        0.30
  YS02001580           JUNCTION     0.12     1.05     9.59     0  01:47        0.80
  YS02001583           JUNCTION     0.15     1.14     9.64     0  01:47        0.82
  YS02001586           JUNCTION     0.25     1.13     9.30     0  01:46        1.13
  YS02001590           JUNCTION     0.35     1.40     9.26     0  01:45        1.37
  YS02001593           JUNCTION     0.29     1.40     9.26     0  01:46        1.28
  YS02001596           JUNCTION     0.39     1.73     9.15     0  01:46        1.65
  YS02001600           JUNCTION     0.48     1.87     9.00     0  01:46        1.87
  YS02001601           JUNCTION     0.66     2.06     8.90     0  01:45        2.06
  YS02001602           JUNCTION     0.57     1.87     8.77     0  01:47        1.87
  YS02001605           JUNCTION     0.52     1.78     8.68     0  01:47        1.78
  YS02001607           JUNCTION     0.50     1.68     8.53     0  01:47        1.65
  YS02001610           JUNCTION     0.54     1.68     8.48     0  01:47        1.68
  YS02001613           JUNCTION     0.50     1.67     8.51     0  01:47        1.65
  YS02001616           JUNCTION     0.43     1.61     8.52     0  01:47        1.59
  YS02001619           JUNCTION     0.41     1.61     8.54     0  01:47        1.60
  YS02001622           JUNCTION     0.40     1.62     8.52     0  01:47        1.56
  YS02001625           JUNCTION     0.65     1.78     8.38     0  01:47        1.78
  YS02001629           JUNCTION     0.53     1.85     8.40     0  01:47        1.85
  YS02001633           JUNCTION     0.61     2.05     8.50     0  01:49        2.00
  YS02001641           JUNCTION     0.58     1.97     8.40     0  01:49        1.94
  YS02001644           JUNCTION     0.57     1.92     8.35     0  01:49        1.92
  YS02001647           JUNCTION     0.35     1.83     8.44     0  01:49        1.72
  YS02001649           JUNCTION     0.40     2.05     8.44     0  01:49        1.91
  YS02001652           JUNCTION     0.28     2.16     8.76     0  01:49        1.77
  YS02001655           JUNCTION     0.21     2.20     9.05     0  01:49        1.57
  YS02001658           JUNCTION     0.15     2.01     9.15     0  01:50        1.35
  YS02001661           JUNCTION     0.16     1.35     8.76     0  01:51        1.18
  YS02001664           JUNCTION     0.07     0.63     8.56     0  01:50        0.58
  YS02001745           JUNCTION     0.07     1.13     8.65     0  01:50        0.63
  YS02001748           JUNCTION     0.13     2.03     9.11     0  01:50        1.08
  YS02001751           JUNCTION     0.17     2.20     9.08     0  01:49        1.27
  YS02001754           JUNCTION     0.24     2.20     8.81     0  01:49        1.55
  YS02001757           JUNCTION     0.41     2.14     8.40     0  01:49        1.91
  YS02001759           JUNCTION     0.35     2.06     8.42     0  01:50        1.89
  YS02001762           JUNCTION     0.34     2.05     8.45     0  01:49        1.88
  YS02001765           JUNCTION     0.32     2.02     8.47     0  01:49        1.99
  YS02001767           JUNCTION     0.32     2.03     8.52     0  01:48        2.03
  YS02001770           JUNCTION     0.33     1.95     8.44     0  01:49        1.88
  YS02001774           JUNCTION     0.39     2.05     8.47     0  01:49        1.96
  YS02001779           JUNCTION     0.23     1.68     8.37     0  01:49        1.68
  YS02001783           JUNCTION     0.28     1.58     7.72     0  01:48        1.25
  YS02001784           JUNCTION     0.30     1.45     7.51     0  01:48        1.14
  YS02001786           JUNCTION     0.25     1.48     7.51     0  01:48        0.90
  YS02001788           JUNCTION     0.18     0.62     6.60     0  01:51        0.62
  YS02001790           JUNCTION     0.21     0.72     6.36     0  01:53        0.71
  YS02001791           JUNCTION     0.13     0.43     5.90     0  01:51        0.43
  YS02001793           JUNCTION     0.07     0.30     5.14     0  01:51        0.30
  YS02001882           JUNCTION     0.35     1.83     8.55     0  01:47        1.63
  YS02001884           JUNCTION     0.44     1.93     8.55     0  01:47        1.75
  YS02001887           JUNCTION     0.52     1.94     8.48     0  01:48        1.83
  YS02001890           JUNCTION     0.55     1.81     8.32     0  01:47        1.81
  YS02001895           JUNCTION     0.32     1.75     8.50     0  01:47        1.75
  YS02001898           JUNCTION     0.33     1.77     8.51     0  01:48        1.77
  YS02001901           JUNCTION     0.44     1.87     8.48     0  01:48        1.67
  YS02001904           JUNCTION     0.42     1.85     8.48     0  01:48        1.66
  YS02001907           JUNCTION     0.73     1.96     8.25     0  01:48        1.96
  YS02001910           JUNCTION     0.53     2.02     8.53     0  01:48        1.85
  YS02001915           JUNCTION     0.35     2.00     8.72     0  01:48        1.72
  YS02001918           JUNCTION     0.19     1.81     8.88     0  01:48        1.44
  YS02001920           JUNCTION     0.27     2.10     9.11     0  01:49        1.53
  YS02001923           JUNCTION     0.15     2.03     9.29     0  01:49        1.31
  YS02001926           JUNCTION     0.18     1.90     9.35     0  01:49        1.15
  YS02001929           JUNCTION     0.10     1.78     9.47     0  01:49        0.93
  YS02006553           JUNCTION     0.73     2.07     8.36     0  01:48        1.96
  YS02006556           JUNCTION     0.71     2.16     8.48     0  01:48        1.94
  YS02006558           JUNCTION     0.75     2.24     8.50     0  01:48        2.00
  YS02006561           JUNCTION     0.18     1.40     8.06     0  01:48        0.91
  YS02163301           JUNCTION     0.56     1.93     8.45     0  01:49        1.90
  YS02163601           JUNCTION     0.64     2.07     8.46     0  01:49        2.01
  YS02164001           JUNCTION     0.57     1.98     8.44     0  01:49        1.94
  CC-1                 OUTFALL      0.00     0.00     0.00     0  00:00        0.00
  CC-2                 OUTFALL      0.00     0.00     0.00     0  00:00        0.00
  JK-1                 OUTFALL      0.00     0.00     0.00     0  00:00        0.00
  JK-2                 OUTFALL      0.00     0.00     0.00     0  00:00        0.00
  WSC                  OUTFALL      0.23     0.34     1.01     0  02:16        0.34
  CC-storage           STORAGE      0.86     1.53     7.03     0  02:13        1.53
  JK-storage           STORAGE      3.19     4.23     5.03     0  01:55        4.21
  XR-storage           STORAGE      7.83     9.26     7.26     0  08:00        9.26
  
  
  *******************
  Node Inflow Summary
  *******************
  
  -------------------------------------------------------------------------------------------------
                                  Maximum  Maximum                  Lateral       Total        Flow
                                  Lateral    Total  Time of Max      Inflow      Inflow     Balance
                                   Inflow   Inflow   Occurrence      Volume      Volume       Error
  Node                 Type           LPS      LPS  days hr:min    10^6 ltr    10^6 ltr     Percent
  -------------------------------------------------------------------------------------------------
  WS02001211           JUNCTION      7.35   200.19     0  02:58       0.212        5.44       0.611
  WS02001212           JUNCTION      0.00   202.71     0  03:22           0        5.41       0.290
  WS02001213           JUNCTION      0.00   204.63     0  03:21           0        5.39       0.331
  WS02003059           JUNCTION      0.00   210.59     0  03:24           0        5.38       0.592
  WS02003060           JUNCTION     16.53   735.24     0  02:16       0.476        8.81       0.159
  WS02003066           JUNCTION      0.00   527.86     0  02:13           0        2.98       0.041
  WS02003067           JUNCTION      0.00   527.76     0  02:13           0        2.99       0.134
  WS02003069           JUNCTION      0.32   732.93     0  02:14     0.00922         8.8       0.168
  WS02003072           JUNCTION      0.00   731.99     0  02:14           0        8.78       0.230
  WS02003073           JUNCTION      1.82   733.10     0  02:15      0.0524        8.81       0.237
  WS02004138           JUNCTION      0.00   380.00     0  00:00           0        5.25       0.053
  WS02004139           JUNCTION      0.32   191.16     0  00:29     0.00924        5.26       0.509
  WS02004401           JUNCTION      0.00   538.03     0  02:13           0        3.08       0.320
  WS02004402           JUNCTION      0.00   537.16     0  02:13           0        3.07       0.327
  WS02004403           JUNCTION      0.00   535.16     0  02:43           0        3.06       0.318
  WS02004404           JUNCTION      0.16   549.95     0  02:08     0.00467        3.06       0.253
  WS02004405           JUNCTION      0.04   591.67     0  02:10      0.0011        3.05       0.349
  WS02004406           JUNCTION      0.00   537.55     0  02:11           0        3.04       0.667
  WS02004407           JUNCTION      0.00   533.52     0  02:11           0        3.02       0.030
  WS02004409           JUNCTION      0.00   532.92     0  02:11           0        3.02       0.076
  WS02004410           JUNCTION      0.00   530.72     0  02:11           0        3.02       0.130
  WS02004411           JUNCTION      0.00   529.78     0  02:12           0        3.01       0.170
  WS02004412           JUNCTION      0.00   528.58     0  02:12           0        3.01       0.233
  WS02004413           JUNCTION      0.00   528.40     0  02:12           0           3       0.419
  WS02006109           JUNCTION      1.23   558.62     0  02:24      0.0354        3.12       0.284
  WS02006110           JUNCTION      0.00   559.79     0  02:24           0        3.12       0.221
  WS02006111           JUNCTION      0.00   563.18     0  02:50           0        3.11       0.028
  WS02006112           JUNCTION      0.00   544.62     0  02:13           0        3.11       0.541
  WS02006113           JUNCTION      0.00   567.76     0  02:18           0        3.11       0.047
  WS02006115           JUNCTION      0.00   552.26     0  03:10           0        3.09       0.200
  WS02006116           JUNCTION      0.00   540.83     0  02:14           0        3.08       0.063
  WS02006228           JUNCTION      0.00   556.54     0  02:24           0        3.09       0.121
  WS02006229           JUNCTION      0.00   556.06     0  02:24           0         3.1       0.192
  WS02006230           JUNCTION     10.28   597.48     0  02:25       0.296         3.1       0.139
  WS02006231           JUNCTION      0.00   575.44     0  02:11           0         2.8      -0.177
  WS02006232           JUNCTION      0.00   574.50     0  02:11           0        2.82       0.483
  WS02006234           JUNCTION      0.00   571.26     0  02:11           0         2.8      -0.433
  WS02006235           JUNCTION      0.00   565.41     0  02:11           0        2.91       0.399
  WS02006238           JUNCTION      0.00   425.88     0  02:20           0        2.08      -0.171
  WS02006239           JUNCTION      0.00   428.47     0  02:25           0        2.02      -0.037
  WS02006240           JUNCTION      0.00   423.84     0  01:55           0        1.97      -0.050
  WS02006242           JUNCTION      0.00   423.53     0  01:55           0        1.94      -0.144
  WS02006243           JUNCTION      0.00   425.23     0  01:55           0        1.91      -0.071
  WS02006245           JUNCTION      0.00   426.02     0  01:55           0        1.91       0.425
  WS02006247           JUNCTION      0.00   426.50     0  01:55           0        1.91       0.023
  WS02006248           JUNCTION      0.00   427.86     0  01:55           0        1.91       0.105
  WS02006249           JUNCTION      0.00   458.97     0  00:00           0         2.1       0.279
  WS02006251           JUNCTION      0.08   406.32     0  01:54     0.00222         2.1      -0.051
  WS02006252           JUNCTION      0.00   400.00     0  00:00           0         2.1      -0.009
  WS02006256           JUNCTION      0.00   300.00     0  00:00           0        1.27      -1.310
  WSF200               JUNCTION      0.00   527.93     0  02:13           0        2.98       0.015
  YS02001580           JUNCTION      0.00   178.72     0  01:47           0     0.00475       1.020
  YS02001583           JUNCTION      0.00   271.34     0  01:47           0       0.015     -10.684
  YS02001586           JUNCTION    523.67   523.70     0  01:53        1.17        1.18       0.148
  YS02001590           JUNCTION      0.00   318.64     0  01:52           0        1.03      -0.051
  YS02001593           JUNCTION      0.00   318.34     0  01:52           0        1.03       0.010
  YS02001596           JUNCTION      0.00   318.00     0  01:58           0        1.03      -0.004
  YS02001600           JUNCTION      0.00   318.15     0  01:58           0        1.03       0.005
  YS02001601           JUNCTION    950.09  1267.48     0  01:51        1.57         2.6       0.013
  YS02001602           JUNCTION      0.00   574.97     0  01:46           0        1.83       0.016
  YS02001605           JUNCTION      0.00   574.95     0  01:46           0        1.75       0.020
  YS02001607           JUNCTION      0.00   574.92     0  01:46           0        1.75       0.098
  YS02001610           JUNCTION      0.00   549.63     0  01:47           0        1.77       0.115
  YS02001613           JUNCTION      0.00   555.38     0  01:47           0         1.5       0.098
  YS02001616           JUNCTION      0.00   569.87     0  01:47           0         1.5       0.015
  YS02001619           JUNCTION    908.42  1004.58     0  01:47        1.81        3.29      -0.003
  YS02001622           JUNCTION      0.00   986.93     0  01:47           0        3.27      -0.008
  YS02001625           JUNCTION      0.00  1012.86     0  01:53           0         3.3       0.258
  YS02001629           JUNCTION      0.00   955.79     0  01:47           0         2.8       0.014
  YS02001633           JUNCTION    729.27  1426.12     0  01:48        1.19        3.94       0.082
  YS02001641           JUNCTION      0.00  1425.21     0  01:48           0        3.91       0.069
  YS02001644           JUNCTION    628.77  1923.66     0  01:48       0.974        4.88       0.066
  YS02001647           JUNCTION      0.00  1923.59     0  01:48           0        4.82       0.011
  YS02001649           JUNCTION      0.00  2204.04     0  01:48           0        5.75       0.005
  YS02001652           JUNCTION      0.00   795.23     0  01:51           0       0.933      -0.131
  YS02001655           JUNCTION      0.15   794.13     0  01:51     0.00443       0.933      -0.046
  YS02001658           JUNCTION      0.00   793.52     0  01:51           0       0.928       0.002
  YS02001661           JUNCTION      0.00   796.73     0  01:50           0       0.928       0.014
  YS02001664           JUNCTION    633.93   633.93     0  01:50       0.928       0.928      -0.019
  YS02001745           JUNCTION    399.61   613.42     0  01:50       0.533       0.535       0.297
  YS02001748           JUNCTION      0.04   704.98     0  01:49      0.0013        0.54      -0.479
  YS02001751           JUNCTION      0.01   561.31     0  01:50    0.000317        0.55       0.124
  YS02001754           JUNCTION      0.26   564.43     0  01:50     0.00749       0.564      -0.233
  YS02001757           JUNCTION      0.00  3370.97     0  01:50           0        8.24       0.038
  YS02001759           JUNCTION    578.42  1369.28     0  01:50       0.779        1.93      -0.014
  YS02001762           JUNCTION      0.00   790.57     0  01:50           0        1.15       0.006
  YS02001765           JUNCTION      0.00   789.82     0  01:50           0        1.15       0.015
  YS02001767           JUNCTION      0.54   789.07     0  01:50      0.0154        1.15      -0.006
  YS02001770           JUNCTION    783.47   786.26     0  01:50        1.15        1.19      -0.025
  YS02001774           JUNCTION      0.00   579.15     0  01:49           0      0.0741       1.497
  YS02001779           JUNCTION      0.01   584.61     0  01:49    0.000144      0.0312      -1.430
  YS02001783           JUNCTION      0.00  1156.82     0  01:49           0        3.02       0.006
  YS02001784           JUNCTION      1.06  1158.00     0  01:49      0.0305        3.05       0.015
  YS02001786           JUNCTION      0.06  1158.02     0  01:49     0.00162        3.06       0.023
  YS02001788           JUNCTION      0.07  1160.30     0  01:49     0.00204        3.06       0.009
  YS02001790           JUNCTION      0.15  1171.23     0  01:51     0.00446        3.06       0.014
  YS02001791           JUNCTION      0.00  1278.78     0  01:53           0        3.06      -0.011
  YS02001793           JUNCTION      0.00  1238.02     0  01:51           0        3.06       0.006
  YS02001882           JUNCTION      0.00   123.56     0  01:47           0      0.0124       4.145
  YS02001884           JUNCTION      0.00   152.01     0  01:47           0      0.0479       5.231
  YS02001887           JUNCTION    625.18   625.18     0  01:50       0.809       0.842       0.514
  YS02001890           JUNCTION      0.00   625.31     0  01:50           0       0.802       0.612
  YS02001895           JUNCTION      0.00   589.44     0  01:48           0       0.782       0.189
  YS02001898           JUNCTION      0.00   589.62     0  01:48           0        0.78       0.000
  YS02001901           JUNCTION      0.00   589.85     0  01:48           0       0.783       0.415
  YS02001904           JUNCTION      0.00   589.88     0  01:48           0       0.787       0.328
  YS02001907           JUNCTION      0.00  1627.19     0  01:50           0        2.41       0.708
  YS02001910           JUNCTION      0.00  1095.04     0  01:50           0        1.63       0.430
  YS02001915           JUNCTION    640.74  1094.51     0  01:50       0.991        1.68       0.089
  YS02001918           JUNCTION      0.00   719.10     0  01:48           0       0.724       0.014
  YS02001920           JUNCTION      2.87   698.46     0  01:48      0.0827       0.701       0.113
  YS02001923           JUNCTION      0.04   947.20     0  01:48     0.00109       0.601      -0.121
  YS02001926           JUNCTION      0.05  1192.27     0  01:49      0.0015       0.581      -0.173
  YS02001929           JUNCTION    323.10   878.54     0  01:49       0.558       0.564      -0.054
  YS02006553           JUNCTION      0.00   790.75     0  02:02           0        1.95       0.604
  YS02006556           JUNCTION      0.00   790.61     0  02:02           0        1.96       0.399
  YS02006558           JUNCTION    785.88  1171.80     0  01:48        1.12        3.06       0.112
  YS02006561           JUNCTION      0.00  1171.74     0  01:48           0        3.02      -0.002
  YS02163301           JUNCTION      0.00   874.63     0  01:48           0        2.79       0.052
  YS02163601           JUNCTION      0.11  1425.97     0  01:48     0.00317         3.9       0.122
  YS02164001           JUNCTION      0.00  1425.74     0  01:48           0         3.9       0.055
  CC-1                 OUTFALL       0.00   683.00     0  00:00           0        3.35       0.000
  CC-2                 OUTFALL       0.00   683.00     0  00:00           0        3.13       0.000
  JK-1                 OUTFALL       0.00  1000.00     0  00:00           0        1.72       0.000
  JK-2                 OUTFALL       0.00  1000.00     0  00:00           0      0.0484       0.000
  WSC                  OUTFALL       0.00   732.33     0  02:16           0        8.79       0.000
  CC-storage           STORAGE       0.00  3373.98     0  01:50           0        10.4      -0.167
  JK-storage           STORAGE       0.00  1208.53     0  01:51           0        3.21       0.136
  XR-storage           STORAGE     200.00   200.00     0  00:00        5.76        6.36       0.001
  
  
  **********************
  Node Surcharge Summary
  **********************
  
  Surcharging occurs when water rises above the top of the highest conduit.
  ---------------------------------------------------------------------
                                               Max. Height   Min. Depth
                                   Hours       Above Crown    Below Rim
  Node                 Type      Surcharged         Meters       Meters
  ---------------------------------------------------------------------
  WS02006109           JUNCTION        1.28          0.316        1.504
  WS02006110           JUNCTION        0.53          0.269        1.581
  WS02006112           JUNCTION        0.83          0.090        1.590
  WS02006228           JUNCTION        1.28          0.491        1.709
  WS02006229           JUNCTION        1.28          0.576        1.874
  WS02006230           JUNCTION        0.53          0.551        1.019
  WS02006231           JUNCTION        0.73          0.758        0.772
  WS02006232           JUNCTION        1.31          0.762        0.718
  WS02006234           JUNCTION        1.10          0.847        0.393
  WS02006235           JUNCTION        1.24          0.896        0.394
  WS02006238           JUNCTION        1.29          0.934        0.496
  WS02006239           JUNCTION        1.26          0.845        0.445
  WS02006240           JUNCTION        1.28          0.818        0.572
  WS02006242           JUNCTION        1.30          0.813        0.007
  WS02006243           JUNCTION        1.28          0.650        0.120
  WS02006245           JUNCTION        1.28          0.575        0.275
  WS02006247           JUNCTION        1.28          0.532        0.228
  WS02006248           JUNCTION        1.27          0.380        0.000
  WS02006249           JUNCTION        1.27          0.390        0.000
  WS02006251           JUNCTION        0.83          0.387        0.793
  WS02006252           JUNCTION        1.42          1.100        0.000
  WS02006256           JUNCTION        3.78          2.050        0.000
  YS02001580           JUNCTION        0.41          0.450        0.000
  YS02001583           JUNCTION        0.42          0.500        0.000
  YS02001586           JUNCTION        0.53          0.510        0.000
  YS02001590           JUNCTION        0.59          0.750        0.000
  YS02001593           JUNCTION        0.59          0.781        0.059
  YS02001596           JUNCTION        0.68          0.999        0.071
  YS02001600           JUNCTION        0.80          1.190        0.000
  YS02001601           JUNCTION        1.14          1.440        0.000
  YS02001602           JUNCTION        1.01          1.270        0.000
  YS02001605           JUNCTION        0.96          1.180        0.000
  YS02001607           JUNCTION        0.56          0.680        0.000
  YS02001610           JUNCTION        0.58          0.680        0.000
  YS02001613           JUNCTION        0.56          0.667        0.033
  YS02001616           JUNCTION        0.52          0.610        0.000
  YS02001619           JUNCTION        0.51          0.610        0.000
  YS02001622           JUNCTION        0.50          0.620        0.000
  YS02001625           JUNCTION        0.66          0.780        0.000
  YS02001629           JUNCTION        0.46          0.470        0.000
  YS02001633           JUNCTION        0.67          1.026        0.034
  YS02001641           JUNCTION        0.62          0.967        0.133
  YS02001644           JUNCTION        0.60          0.920        0.000
  YS02001647           JUNCTION        0.43          0.829        0.071
  YS02001649           JUNCTION        0.53          1.050        0.000
  YS02001652           JUNCTION        0.36          1.130        0.000
  YS02001655           JUNCTION        0.23          1.200        0.000
  YS02001658           JUNCTION        0.08          1.009        0.291
  YS02001661           JUNCTION        0.01          0.285        1.105
  YS02001745           JUNCTION        0.01          0.131        1.219
  YS02001748           JUNCTION        0.01          0.954        0.236
  YS02001751           JUNCTION        0.13          1.200        0.000
  YS02001754           JUNCTION        0.26          1.150        0.000
  YS02001757           JUNCTION        0.58          1.137        0.073
  YS02001759           JUNCTION        0.49          1.057        0.153
  YS02001762           JUNCTION        0.46          1.054        0.096
  YS02001765           JUNCTION        0.42          1.023        0.077
  YS02001767           JUNCTION        0.39          1.030        0.000
  YS02001770           JUNCTION        0.37          0.920        0.000
  YS02001774           JUNCTION        0.44          1.050        0.000
  YS02001779           JUNCTION        0.27          0.680        0.000
  YS02001783           JUNCTION        0.37          0.782        0.818
  YS02001784           JUNCTION        0.35          0.646        0.844
  YS02001786           JUNCTION        0.26          0.685        0.745
  YS02001882           JUNCTION        0.32          0.830        0.000
  YS02001884           JUNCTION        0.33          0.870        0.000
  YS02001887           JUNCTION        0.36          0.892        0.058
  YS02001890           JUNCTION        0.37          0.760        0.000
  YS02001895           JUNCTION        0.32          0.750        0.000
  YS02001898           JUNCTION        0.31          0.740        0.000
  YS02001901           JUNCTION        0.35          0.870        0.000
  YS02001904           JUNCTION        0.34          0.850        0.000
  YS02001907           JUNCTION        0.52          0.950        0.000
  YS02001910           JUNCTION        0.39          1.025        0.075
  YS02001915           JUNCTION        0.32          1.000        0.000
  YS02001918           JUNCTION        0.25          0.810        0.000
  YS02001920           JUNCTION        0.26          1.100        0.040
  YS02001923           JUNCTION        0.01          0.820        0.000
  YS02001926           JUNCTION        0.02          0.900        0.000
  YS02001929           JUNCTION        0.01          0.780        0.000
  YS02006553           JUNCTION        0.53          1.071        0.119
  YS02006556           JUNCTION        0.46          1.124        0.226
  YS02006558           JUNCTION        0.45          1.137        0.263
  YS02006561           JUNCTION        0.22          0.598        0.552
  YS02163301           JUNCTION        0.66          0.935        0.095
  YS02163601           JUNCTION        0.70          1.067        0.013
  YS02164001           JUNCTION        0.63          0.982        0.118
  
  
  *********************
  Node Flooding Summary
  *********************
  
  Flooding refers to all water that overflows a node, whether it ponds or not.
  --------------------------------------------------------------------------
                                                             Total   Maximum
                                 Maximum   Time of Max       Flood    Ponded
                        Hours       Rate    Occurrence      Volume     Depth
  Node                 Flooded       LPS   days hr:min    10^6 ltr    Meters
  --------------------------------------------------------------------------
  WS02006248              0.01     20.46      0  02:25       0.000     0.000
  WS02006249              0.79     96.70      0  01:54       0.180     0.000
  WS02006252              0.01    245.63      0  00:00       0.000     0.000
  WS02006256              1.17    293.68      0  01:46       0.379     0.000
  YS02001580              0.01    134.00      0  01:47       0.001     0.000
  YS02001583              0.01    241.09      0  01:47       0.000     0.000
  YS02001586              0.32    206.00      0  01:53       0.139     0.000
  YS02001590              0.01    120.85      0  01:45       0.000     0.000
  YS02001600              0.01      4.05      0  01:46       0.000     0.000
  YS02001601              0.47    869.62      0  01:51       0.772     0.000
  YS02001602              0.38     62.16      0  01:59       0.077     0.000
  YS02001605              0.01      8.55      0  01:47       0.000     0.000
  YS02001607              0.01     73.28      0  01:47       0.000     0.000
  YS02001610              0.33    401.46      0  01:53       0.284     0.000
  YS02001616              0.01    203.28      0  01:47       0.000     0.000
  YS02001619              0.01    228.59      0  01:47       0.001     0.000
  YS02001622              0.01    327.28      0  01:47       0.001     0.000
  YS02001625              0.31   1012.65      0  01:53       0.526     0.000
  YS02001629              0.06    389.52      0  01:47       0.021     0.000
  YS02001644              0.06    418.18      0  01:51       0.046     0.000
  YS02001649              0.01     45.33      0  01:50       0.000     0.000
  YS02001652              0.01     44.17      0  01:49       0.000     0.000
  YS02001655              0.01    512.59      0  01:49       0.001     0.000
  YS02001751              0.01    295.66      0  01:49       0.000     0.000
  YS02001754              0.01     67.33      0  01:49       0.000     0.000
  YS02001767              0.01    193.30      0  01:48       0.000     0.000
  YS02001770              0.01    328.14      0  01:49       0.001     0.000
  YS02001774              0.01    149.87      0  01:49       0.000     0.000
  YS02001779              0.04    551.79      0  01:49       0.013     0.000
  YS02001882              0.01     74.55      0  01:47       0.000     0.000
  YS02001884              0.01     43.90      0  01:47       0.000     0.000
  YS02001890              0.07    196.89      0  01:48       0.015     0.000
  YS02001895              0.01    216.78      0  01:47       0.000     0.000
  YS02001898              0.01    260.05      0  01:48       0.001     0.000
  YS02001901              0.01     33.07      0  01:48       0.000     0.000
  YS02001904              0.01     83.56      0  01:48       0.000     0.000
  YS02001907              0.21   1255.16      0  01:50       0.446     0.000
  YS02001915              0.01    223.57      0  01:48       0.000     0.000
  YS02001918              0.01    297.56      0  01:48       0.003     0.000
  YS02001923              0.01    346.11      0  01:49       0.002     0.000
  YS02001926              0.01    801.63      0  01:49       0.004     0.000
  YS02001929              0.01    710.52      0  01:49       0.001     0.000
  
  
  **********************
  Storage Volume Summary
  **********************
  
  ------------------------------------------------------------------------------------------------
                         Average    Avg   Evap  Exfil     Maximum    Max    Time of Max    Maximum
                          Volume   Pcnt   Pcnt   Pcnt      Volume   Pcnt     Occurrence    Outflow
  Storage Unit           1000 m³   Full   Loss   Loss     1000 m³   Full    days hr:min        LPS
  ------------------------------------------------------------------------------------------------
  CC-storage               2.387   37.2    0.0    0.0       4.258   66.4       0  02:13    1783.53
  JK-storage               0.160   55.1    0.0    0.0       0.213   73.0       0  01:55    2300.00
  XR-storage               0.939   65.2    0.0    0.0       1.111   77.2       0  08:00     380.00
  
  
  ***********************
  Outfall Loading Summary
  ***********************
  
  -----------------------------------------------------------
                         Flow       Avg       Max       Total
                         Freq      Flow      Flow      Volume
  Outfall Node           Pcnt       LPS       LPS    10^6 ltr
  -----------------------------------------------------------
  CC-1                  32.44    683.00    683.00       3.346
  CC-2                  30.00    683.00    683.00       3.132
  JK-1                  14.41   1000.00   1000.00       1.718
  JK-2                   0.26   1000.00   1000.00       0.048
  WSC                   99.92    370.56    732.33       8.792
  -----------------------------------------------------------
  System                35.41   3736.56   3366.23      17.037
  
  
  ********************
  Link Flow Summary
  ********************
  
  -----------------------------------------------------------------------------
                                 Maximum  Time of Max   Maximum    Max/    Max/
                                  |Flow|   Occurrence   |Veloc|    Full    Full
  Link                 Type          LPS  days hr:min     m/sec    Flow   Depth
  -----------------------------------------------------------------------------
  1                    CONDUIT    732.33     0  02:16      3.06    0.26    0.34
  WS02001211WS02001212 CONDUIT    202.71     0  03:22      0.54    0.15    0.51
  WS02001212WS02001213 CONDUIT    204.63     0  03:21      1.04    0.32    0.35
  WS02001213WS02003059 CONDUIT    210.59     0  03:24      0.47    0.35    0.67
  WS02003059WS02003060 CONDUIT    217.43     0  03:24      0.67    0.14    0.58
  WS02003060WS02003069 CONDUIT    732.61     0  02:14      1.76    0.29    0.40
  WS02003066WSF200     CONDUIT    527.93     0  02:13      2.73    0.09    0.23
  WS02003067WS02003066 CONDUIT    527.86     0  02:13      1.19    0.17    0.41
  WS02003069WS02003072 CONDUIT    731.99     0  02:14      1.50    0.35    0.45
  WS02003072WS02003073 CONDUIT    731.28     0  02:15      1.58    1.58    0.43
  WS02004138WS02004139 CONDUIT    190.84     0  00:29      2.17    0.04    0.33
  WS02004139WS02001211 CONDUIT    192.84     0  02:58      0.54    0.24    0.47
  WS02004401WS02004402 CONDUIT    537.16     0  02:13      0.97    0.64    0.88
  WS02004402WS02004403 CONDUIT    535.16     0  02:43      0.97    0.77    0.90
  WS02004403WS02004404 CONDUIT    549.79     0  02:08      0.92    0.40    0.95
  WS02004404WS02004405 CONDUIT    591.63     0  02:10      1.08    5.80    0.97
  WS02004405WS02004406 CONDUIT    537.55     0  02:11      0.99    1.06    0.96
  WS02004406WS02004407 CONDUIT    533.52     0  02:11      1.03    0.24    0.62
  WS02004407WS02004409 CONDUIT    532.92     0  02:11      1.57    0.19    0.48
  WS02004409WS02004410 CONDUIT    530.72     0  02:11      1.05    0.69    0.67
  WS02004410WS02004411 CONDUIT    529.78     0  02:12      1.01    0.72    0.68
  WS02004411WS02004412 CONDUIT    528.58     0  02:12      0.95    0.75    0.69
  WS02004412WS02004413 CONDUIT    528.40     0  02:12      0.81    0.35    0.77
  WS02004413WS02003067 CONDUIT    527.76     0  02:13      1.10    0.23    0.59
  WS02006109WS02006110 CONDUIT    559.79     0  02:24      1.11    1.08    1.00
  WS02006110WS02006113 CONDUIT    567.76     0  02:18      1.37    0.52    0.79
  WS02006111WS02006112 CONDUIT    544.62     0  02:13      1.82    0.26    0.67
  WS02006112WS02006115 CONDUIT    552.26     0  03:10      0.88    0.33    0.88
  WS02006113WS02006111 CONDUIT    563.18     0  02:50      2.47    0.68    0.46
  WS02006115WS02006116 CONDUIT    540.83     0  02:14      1.11    0.69    0.78
  WS02006116WS02004401 CONDUIT    538.03     0  02:13      0.98    0.74    0.86
  WS02006228WS02006109 CONDUIT    557.39     0  02:24      1.11    2.44    1.00
  WS02006229WS02006228 CONDUIT    556.54     0  02:24      1.15    1.84    1.00
  WS02006230WS02006229 CONDUIT    556.06     0  02:24      1.44   12.37    1.00
  WS02006231WS02006230 CONDUIT    587.20     0  02:25      1.59    8.91    1.00
  WS02006232WS02006231 CONDUIT    575.44     0  02:11      1.50    1.21    1.00
  WS02006234WS02006232 CONDUIT    574.50     0  02:11      1.49    1.16    1.00
  WS02006235WS02006234 CONDUIT    571.26     0  02:11      1.48    6.03    1.00
  WS02006238WS02006235 CONDUIT    426.54     0  02:20      1.57    0.95    1.00
  WS02006239WS02006238 CONDUIT    425.88     0  02:20      1.11    1.36    1.00
  WS02006240WS02006239 CONDUIT    428.47     0  02:25      1.24    1.35    1.00
  WS02006242WS02006240 CONDUIT    423.84     0  01:55      1.12    1.68    1.00
  WS02006243WS02006242 CONDUIT    423.53     0  01:55      1.39    0.90    1.00
  WS02006245WS02006243 CONDUIT    425.23     0  01:55      1.45    1.26    1.00
  WS02006247WS02006245 CONDUIT    426.02     0  01:55      1.44    3.38    1.00
  WS02006248WS02006247 CONDUIT    426.50     0  01:55      1.45    0.93    1.00
  WS02006249WS02006248 CONDUIT    427.86     0  01:55      1.37    2.34    1.00
  WS02006251WS02006249 CONDUIT    458.97     0  00:00      1.99    1.32    1.00
  WS02006252WS02006251 CONDUIT    406.24     0  01:54     25.11    1.49    1.00
  WS02006256WS02006235 CONDUIT    289.22     0  01:47      4.23    3.06    1.00
  WSF200WS02003060     CONDUIT    528.01     0  02:13      1.76    0.12    0.31
  YS02001580YS02001583 CONDUIT    178.72     0  01:47      0.92    0.69    1.00
  YS02001583YS02001586 CONDUIT    210.58     0  01:47      0.95    0.32    1.00
  YS02001586YS02001590 CONDUIT    318.64     0  01:52      1.29    0.56    1.00
  YS02001590YS02001593 CONDUIT    318.34     0  01:52      1.13    2.00    1.00
  YS02001593YS02001596 CONDUIT    318.00     0  01:58      1.74    0.50    1.00
  YS02001596YS02001600 CONDUIT    318.15     0  01:58      1.21    0.62    1.00
  YS02001600YS02001601 CONDUIT    318.21     0  01:58      1.13    0.55    1.00
  YS02001601YS02001602 CONDUIT    574.97     0  01:46      2.03    2.08    1.00
  YS02001602YS02001605 CONDUIT    574.95     0  01:46      2.03   12.17    1.00
  YS02001605YS02001607 CONDUIT    574.92     0  01:46      2.03    3.15    1.00
  YS02001607YS02001610 CONDUIT    549.63     0  01:47      0.70    0.52    1.00
  YS02001610YS02001613 CONDUIT    555.38     0  01:47      0.71    0.64    1.00
  YS02001613YS02001616 CONDUIT    569.87     0  01:47      0.73    0.49    1.00
  YS02001616YS02001619 CONDUIT    509.21     0  01:47      0.66    0.88    1.00
  YS02001619YS02001622 CONDUIT    986.93     0  01:47      1.27    1.45    1.00
  YS02001622YS02001625 CONDUIT    960.33     0  01:47      1.22    0.51    1.00
  YS02001625YS02001629 CONDUIT    955.79     0  01:47      1.22    0.45    1.00
  YS02001629YS02163301 CONDUIT    874.63     0  01:48      1.11    1.08    1.00
  YS02001633YS02163601 CONDUIT   1425.86     0  01:48      1.82    1.50    1.00
  YS02001641YS02001644 CONDUIT   1425.44     0  01:48      1.81    4.61    1.00
  YS02001644YS02001647 CONDUIT   1923.59     0  01:48      2.45    1.13    1.00
  YS02001647YS02001649 CONDUIT   1928.60     0  01:48      2.46    1.02    1.00
  YS02001649YS02001757 CONDUIT   2202.87     0  01:48      2.80    1.34    1.00
  YS02001652YS02001649 CONDUIT    796.52     0  01:51      1.01    0.39    1.00
  YS02001655YS02001652 CONDUIT    795.23     0  01:51      1.46    0.39    1.00
  YS02001658YS02001655 CONDUIT    793.98     0  01:51      2.06    0.34    1.00
  YS02001661YS02001658 CONDUIT    793.52     0  01:51      2.46    0.31    1.00
  YS02001664YS02001661 CONDUIT    796.73     0  01:50      2.48    0.25    0.82
  YS02001745YS02001748 CONDUIT    571.78     0  01:50      2.36    0.22    1.00
  YS02001748YS02001751 CONDUIT    561.29     0  01:50      1.88    0.28    1.00
  YS02001751YS02001754 CONDUIT    564.17     0  01:50      1.54    0.27    1.00
  YS02001754YS02001757 CONDUIT    567.19     0  01:50      0.72    0.23    1.00
  YS02001757CaochengTiaoxuchi CONDUIT   3373.98     0  01:50      4.30    1.46    1.00
  YS02001759YS02001757 CONDUIT   1369.62     0  01:50      1.74    0.97    1.00
  YS02001762YS02001759 CONDUIT    791.24     0  01:50      1.01    0.91    1.00
  YS02001765YS02001762 CONDUIT    790.57     0  01:50      1.01    0.74    1.00
  YS02001767YS02001765 CONDUIT    789.82     0  01:50      1.01    0.99    1.00
  YS02001770YS02001767 CONDUIT    788.54     0  01:50      1.00    3.12    1.00
  YS02001774YS02001770 CONDUIT    579.15     0  01:49      0.74    0.37    1.00
  YS02001779YS02001774 CONDUIT    584.60     0  01:49      0.75    0.29    1.00
  YS02001783YS02001784 CONDUIT   1156.94     0  01:49      2.30    1.59    1.00
  YS02001784YS02001785 CONDUIT   1157.97     0  01:49      2.30    2.69    1.00
  YS02001786YS02001788 CONDUIT   1160.23     0  01:49      2.48    2.24    0.89
  YS02001788YS02001790 CONDUIT   1171.08     0  01:51      2.71    0.86    0.84
  YS02001790YS02001791 CONDUIT   1278.78     0  01:53      3.42    1.39    0.70
  YS02001791YS02001793 CONDUIT   1238.02     0  01:51      6.56    0.53    0.45
  YS02001793JiankangQianchi CONDUIT   1208.53     0  01:51      2.39    0.10    0.65
  YS02001882YS02001884 CONDUIT    123.56     0  01:47      0.16    0.14    1.00
  YS02001884YS02001887 CONDUIT    152.01     0  01:47      0.19    0.20    1.00
  YS02001887YS02001890 CONDUIT    625.31     0  01:50      0.80    1.07    1.00
  YS02001890YS02001895 CONDUIT    589.44     0  01:48      0.75    0.27    1.00
  YS02001895YS02001898 CONDUIT    589.62     0  01:48      0.75    1.02    1.00
  YS02001898YS02001901 CONDUIT    589.85     0  01:48      0.75    0.38    1.00
  YS02001901YS02001904 CONDUIT    589.88     0  01:48      0.75    0.91    1.00
  YS02001904YS02001907 CONDUIT    589.81     0  01:48      0.75    0.21    1.00
  YS02001907YS02006553 CONDUIT    790.75     0  02:02      0.88    0.93    1.00
  YS02001910YS02001907 CONDUIT   1095.60     0  01:50      1.39    0.62    1.00
  YS02001915YS02001910 CONDUIT   1095.04     0  01:50      1.39    0.54    1.00
  YS02001918YS02001915 CONDUIT    719.10     0  01:48      0.92    0.40    1.00
  YS02001920YS02001918 CONDUIT    695.59     0  01:48      0.89    0.67    1.00
  YS02001923YS02001920 CONDUIT    707.53     0  01:48      0.96    0.32    1.00
  YS02001926YS02001923 CONDUIT    943.19     0  01:49      1.37    1.35    1.00
  YS02001929YS02001926 CONDUIT    589.00     0  01:49      1.24    0.28    1.00
  YS02006553YS02006556 CONDUIT    790.61     0  02:02      1.01    0.68    1.00
  YS02006556YS02006558 CONDUIT    792.78     0  02:02      1.01    0.63    1.00
  YS02006558YS02006561 CONDUIT   1171.74     0  01:48      4.14    2.59    1.00
  YS02006561YS02001783 CONDUIT   1156.82     0  01:49      2.30    0.60    1.00
  YS02163301YS02001633 CONDUIT    874.62     0  01:47      1.11    0.82    1.00
  YS02163601YS02164001 CONDUIT   1425.74     0  01:48      1.82    1.26    1.00
  YS02164001YS02001641 CONDUIT   1425.21     0  01:48      1.81    1.95    1.00
  CC-R1                PUMP       683.00     0  00:00              1.00
  CC-R2                PUMP       683.00     0  00:00              1.00
  CC-S1                PUMP       200.00     0  00:00              1.00
  CC-S2                PUMP       200.00     0  00:00              1.00
  JK-R1                PUMP      1000.00     0  00:00              1.00
  JK-R2                PUMP      1000.00     0  00:00              1.00
  JK-S                 PUMP       300.00     0  00:00              1.00
  XR-1                 PUMP        95.00     0  00:00              1.00
  XR-2                 PUMP        95.00     0  00:00              1.00
  XR-3                 PUMP        95.00     0  00:00              1.00
  XR-4                 PUMP        95.00     0  00:00              1.00
  
  
  ***************************
  Flow Classification Summary
  ***************************
  
  -------------------------------------------------------------------------------------
                      Adjusted    ---------- Fraction of Time in Flow Class ---------- 
                       /Actual         Up    Down  Sub   Sup   Up    Down  Norm  Inlet 
  Conduit               Length    Dry  Dry   Dry   Crit  Crit  Crit  Crit  Ltd   Ctrl  
  -------------------------------------------------------------------------------------
  1                       1.00   0.00  0.00  0.00  0.00  1.00  0.00  0.00  0.16  0.00
  WS02001211WS02001212    1.00   0.00  0.02  0.00  0.98  0.00  0.00  0.00  0.00  0.00
  WS02001212WS02001213    1.00   0.02  0.00  0.00  0.18  0.00  0.80  0.00  0.00  0.00
  WS02001213WS02003059    1.00   0.00  0.01  0.00  0.99  0.00  0.00  0.00  0.00  0.00
  WS02003059WS02003060    1.00   0.00  0.00  0.00  1.00  0.00  0.00  0.00  0.03  0.00
  WS02003060WS02003069    1.00   0.00  0.00  0.00  0.98  0.02  0.00  0.00  0.71  0.00
  WS02003066WSF200        1.00   0.13  0.00  0.00  0.00  0.87  0.00  0.00  0.77  0.00
  WS02003067WS02003066    1.00   0.10  0.02  0.00  0.88  0.00  0.00  0.00  0.00  0.00
  WS02003069WS02003072    1.00   0.00  0.00  0.00  1.00  0.00  0.00  0.00  0.80  0.00
  WS02003072WS02003073    1.00   0.00  0.00  0.00  0.00  0.00  0.00  1.00  0.00  0.00
  WS02004138WS02004139    1.00   0.00  0.00  0.00  0.97  0.01  0.00  0.02  0.98  0.00
  WS02004139WS02001211    1.00   0.00  0.00  0.00  0.99  0.00  0.00  0.00  0.00  0.00
  WS02004401WS02004402    1.00   0.02  0.00  0.00  0.98  0.00  0.00  0.00  0.00  0.00
  WS02004402WS02004403    1.00   0.02  0.00  0.00  0.97  0.00  0.00  0.00  0.00  0.00
  WS02004403WS02004404    1.00   0.00  0.03  0.00  0.97  0.00  0.00  0.00  0.00  0.00
  WS02004404WS02004405    1.00   0.00  0.00  0.00  1.00  0.00  0.00  0.00  0.01  0.00
  WS02004405WS02004406    1.00   0.00  0.00  0.00  1.00  0.00  0.00  0.00  0.00  0.00
  WS02004406WS02004407    1.00   0.00  0.05  0.00  0.95  0.00  0.00  0.00  0.00  0.00
  WS02004407WS02004409    1.00   0.05  0.00  0.00  0.94  0.01  0.00  0.00  0.94  0.00
  WS02004409WS02004410    1.00   0.05  0.00  0.00  0.95  0.00  0.00  0.00  0.03  0.00
  WS02004410WS02004411    1.00   0.05  0.00  0.00  0.95  0.00  0.00  0.00  0.01  0.00
  WS02004411WS02004412    1.00   0.05  0.00  0.00  0.95  0.00  0.00  0.00  0.00  0.00
  WS02004412WS02004413    1.00   0.05  0.00  0.00  0.94  0.00  0.00  0.00  0.01  0.00
  WS02004413WS02003067    1.00   0.06  0.04  0.00  0.00  0.00  0.90  0.00  0.00  0.00
  WS02006109WS02006110    1.00   0.00  0.01  0.00  0.98  0.00  0.01  0.00  0.00  0.00
  WS02006110WS02006113    1.00   0.01  0.01  0.00  0.98  0.00  0.00  0.00  0.00  0.00
  WS02006111WS02006112    1.00   0.02  0.00  0.00  0.98  0.00  0.00  0.00  0.98  0.00
  WS02006112WS02006115    1.00   0.02  0.00  0.00  0.97  0.00  0.00  0.00  0.00  0.00
  WS02006113WS02006111    1.00   0.02  0.00  0.00  0.00  0.98  0.00  0.00  0.08  0.00
  WS02006115WS02006116    1.00   0.02  0.00  0.00  0.97  0.00  0.00  0.01  0.00  0.00
  WS02006116WS02004401    1.00   0.02  0.00  0.00  0.98  0.00  0.00  0.00  0.00  0.00
  WS02006228WS02006109    1.00   0.00  0.00  0.00  1.00  0.00  0.00  0.00  0.00  0.00
  WS02006229WS02006228    1.00   0.00  0.00  0.00  0.99  0.00  0.00  0.01  0.00  0.00
  WS02006230WS02006229    1.00   0.00  0.00  0.00  0.99  0.00  0.00  0.01  0.04  0.00
  WS02006231WS02006230    1.00   0.00  0.00  0.00  0.17  0.00  0.83  0.00  0.00  0.00
  WS02006232WS02006231    1.00   0.00  0.00  0.00  0.98  0.00  0.01  0.00  0.00  0.00
  WS02006234WS02006232    1.00   0.00  0.00  0.00  1.00  0.00  0.00  0.00  0.33  0.00
  WS02006235WS02006234    1.00   0.00  0.00  0.00  0.59  0.00  0.41  0.00  0.00  0.00
  WS02006238WS02006235    1.00   0.00  0.00  0.00  1.00  0.00  0.00  0.00  0.00  0.00
  WS02006239WS02006238    1.00   0.00  0.00  0.00  1.00  0.00  0.00  0.00  0.52  0.00
  WS02006240WS02006239    1.00   0.00  0.00  0.00  0.42  0.00  0.00  0.58  0.04  0.00
  WS02006242WS02006240    1.00   0.00  0.00  0.00  1.00  0.00  0.00  0.00  0.00  0.00
  WS02006243WS02006242    1.00   0.00  0.00  0.00  0.99  0.00  0.00  0.01  0.76  0.00
  WS02006245WS02006243    1.00   0.00  0.00  0.00  0.37  0.00  0.00  0.63  0.03  0.00
  WS02006247WS02006245    1.00   0.00  0.00  0.00  0.99  0.00  0.00  0.01  0.00  0.00
  WS02006248WS02006247    1.00   0.00  0.00  0.00  0.99  0.00  0.00  0.01  0.18  0.00
  WS02006249WS02006248    1.00   0.00  0.00  0.00  0.22  0.00  0.78  0.00  0.00  0.00
  WS02006251WS02006249    1.00   0.00  0.00  0.00  1.00  0.00  0.00  0.00  0.79  0.00
  WS02006252WS02006251    1.00   0.00  0.77  0.00  0.10  0.00  0.13  0.00  0.00  0.00
  WS02006256WS02006235    1.00   0.00  0.00  0.00  0.99  0.01  0.00  0.00  0.00  0.00
  WSF200WS02003060        1.00   0.00  0.13  0.00  0.71  0.16  0.00  0.00  0.70  0.00
  YS02001580YS02001583    1.00   0.22  0.61  0.00  0.17  0.00  0.00  0.00  0.71  0.00
  YS02001583YS02001586    1.00   0.50  0.28  0.00  0.22  0.00  0.00  0.00  0.71  0.00
  YS02001586YS02001590    1.00   0.13  0.00  0.00  0.37  0.04  0.00  0.46  0.33  0.00
  YS02001590YS02001593    1.00   0.13  0.01  0.00  0.09  0.00  0.78  0.00  0.00  0.00
  YS02001593YS02001596    1.00   0.14  0.00  0.00  0.10  0.01  0.00  0.76  0.02  0.00
  YS02001596YS02001600    1.00   0.14  0.00  0.00  0.17  0.02  0.00  0.68  0.06  0.00
  YS02001600YS02001601    1.00   0.13  0.01  0.00  0.86  0.00  0.00  0.00  0.64  0.00
  YS02001601YS02001602    1.00   0.13  0.01  0.00  0.86  0.00  0.00  0.00  0.00  0.00
  YS02001602YS02001605    1.00   0.14  0.00  0.00  0.86  0.00  0.00  0.00  0.00  0.00
  YS02001605YS02001607    1.00   0.14  0.00  0.00  0.86  0.00  0.00  0.00  0.00  0.00
  YS02001607YS02001610    1.00   0.13  0.01  0.00  0.86  0.00  0.00  0.00  0.02  0.00
  YS02001610YS02001613    1.00   0.13  0.00  0.00  0.87  0.00  0.00  0.00  0.01  0.00
  YS02001613YS02001616    1.00   0.13  0.00  0.00  0.87  0.00  0.00  0.00  0.01  0.00
  YS02001616YS02001619    1.00   0.13  0.00  0.00  0.87  0.00  0.00  0.00  0.00  0.00
  YS02001619YS02001622    1.00   0.13  0.00  0.00  0.87  0.00  0.00  0.00  0.36  0.00
  YS02001622YS02001625    1.00   0.13  0.00  0.00  0.87  0.00  0.00  0.00  0.05  0.00
  YS02001625YS02001629    1.00   0.13  0.05  0.00  0.12  0.00  0.70  0.00  0.00  0.00
  YS02001629YS02163301    1.00   0.16  0.01  0.00  0.83  0.00  0.00  0.00  0.00  0.00
  YS02001633YS02163601    1.00   0.00  0.01  0.00  0.99  0.00  0.00  0.00  0.15  0.00
  YS02001641YS02001644    1.00   0.00  0.01  0.00  0.99  0.00  0.00  0.00  0.00  0.00
  YS02001644YS02001647    1.00   0.00  0.18  0.00  0.82  0.00  0.00  0.00  0.00  0.00
  YS02001647YS02001649    1.00   0.00  0.18  0.00  0.56  0.26  0.00  0.00  0.60  0.00
  YS02001649YS02001757    1.00   0.00  0.00  0.00  0.71  0.29  0.00  0.00  0.58  0.00
  YS02001652YS02001649    1.00   0.00  0.00  0.00  0.96  0.04  0.00  0.00  0.77  0.00
  YS02001655YS02001652    1.00   0.00  0.00  0.00  0.13  0.02  0.00  0.85  0.05  0.00
  YS02001658YS02001655    1.00   0.00  0.14  0.00  0.65  0.21  0.00  0.00  0.71  0.00
  YS02001661YS02001658    1.00   0.14  0.00  0.00  0.51  0.34  0.00  0.00  0.74  0.00
  YS02001664YS02001661    1.00   0.13  0.00  0.00  0.78  0.09  0.00  0.00  0.86  0.00
  YS02001745YS02001748    1.00   0.00  0.00  0.00  0.06  0.01  0.00  0.93  0.04  0.00
  YS02001748YS02001751    1.00   0.00  0.00  0.00  0.82  0.18  0.00  0.00  0.79  0.00
  YS02001751YS02001754    1.00   0.00  0.00  0.00  0.11  0.00  0.00  0.88  0.02  0.00
  YS02001754YS02001757    1.00   0.00  0.00  0.00  1.00  0.00  0.00  0.00  0.88  0.00
  YS02001757CaochengTiaoxuchi    1.00   0.00  0.00  0.00  1.00  0.00  0.00  0.00  0.87  0.00
  YS02001759YS02001757    1.00   0.00  0.00  0.00  1.00  0.00  0.00  0.00  0.64  0.00
  YS02001762YS02001759    1.00   0.00  0.00  0.00  1.00  0.00  0.00  0.00  0.04  0.00
  YS02001765YS02001762    1.00   0.00  0.00  0.00  1.00  0.00  0.00  0.00  0.77  0.00
  YS02001767YS02001765    1.00   0.00  0.00  0.00  1.00  0.00  0.00  0.00  0.00  0.00
  YS02001770YS02001767    1.00   0.00  0.00  0.00  1.00  0.00  0.00  0.00  0.00  0.00
  YS02001774YS02001770    1.00   0.00  0.13  0.00  0.59  0.00  0.27  0.00  0.03  0.00
  YS02001779YS02001774    1.00   0.00  0.00  0.00  1.00  0.00  0.00  0.00  0.82  0.00
  YS02001783YS02001784    1.00   0.00  0.18  0.00  0.82  0.00  0.00  0.00  0.58  0.00
  YS02001784YS02001785    1.00   0.00  0.00  0.00  1.00  0.00  0.00  0.00  0.17  0.00
  YS02001786YS02001788    1.00   0.00  0.00  0.00  0.81  0.19  0.00  0.00  0.00  0.00
  YS02001788YS02001790    1.00   0.00  0.00  0.00  0.21  0.79  0.00  0.00  0.85  0.00
  YS02001790YS02001791    1.00   0.00  0.00  0.00  0.01  0.99  0.00  0.00  0.16  0.00
  YS02001791YS02001793    1.00   0.00  0.00  0.00  0.00  1.00  0.00  0.00  0.01  0.00
  YS02001793JiankangQianchi    1.00   0.00  0.00  0.00  0.99  0.00  0.00  0.00  0.96  0.00
  YS02001882YS02001884    1.00   0.16  0.01  0.00  0.84  0.00  0.00  0.00  0.00  0.00
  YS02001884YS02001887    1.00   0.06  0.05  0.00  0.89  0.00  0.00  0.00  0.00  0.00
  YS02001887YS02001890    1.00   0.00  0.00  0.00  0.97  0.00  0.03  0.00  0.00  0.00
  YS02001890YS02001895    1.00   0.00  0.17  0.00  0.83  0.00  0.00  0.00  0.00  0.00
  YS02001895YS02001898    1.00   0.17  0.00  0.00  0.81  0.00  0.02  0.00  0.00  0.00
  YS02001898YS02001901    1.00   0.17  0.00  0.00  0.83  0.00  0.00  0.00  0.01  0.00
  YS02001901YS02001904    1.00   0.17  0.00  0.00  0.83  0.00  0.00  0.00  0.00  0.00
  YS02001904YS02001907    1.00   0.00  0.17  0.00  0.83  0.00  0.00  0.00  0.00  0.00
  YS02001907YS02006553    1.00   0.00  0.02  0.00  0.98  0.00  0.00  0.00  0.00  0.00
  YS02001910YS02001907    1.00   0.00  0.00  0.00  0.97  0.00  0.00  0.03  0.12  0.00
  YS02001915YS02001910    1.00   0.00  0.00  0.00  0.96  0.04  0.00  0.00  0.16  0.00
  YS02001918YS02001915    1.00   0.00  0.01  0.00  0.98  0.02  0.00  0.00  0.78  0.00
  YS02001920YS02001918    1.00   0.00  0.01  0.00  0.99  0.00  0.00  0.00  0.00  0.00
  YS02001923YS02001920    1.00   0.00  0.00  0.00  1.00  0.00  0.00  0.00  0.95  0.00
  YS02001926YS02001923    1.00   0.00  0.07  0.00  0.04  0.00  0.89  0.00  0.00  0.00
  YS02001929YS02001926    1.00   0.00  0.13  0.00  0.87  0.00  0.00  0.00  0.84  0.00
  YS02006553YS02006556    1.00   0.01  0.00  0.00  0.99  0.00  0.00  0.00  0.03  0.00
  YS02006556YS02006558    1.00   0.00  0.00  0.00  1.00  0.00  0.00  0.00  0.00  0.00
  YS02006558YS02006561    1.00   0.18  0.00  0.00  0.04  0.78  0.00  0.00  0.18  0.00
  YS02006561YS02001783    1.00   0.18  0.00  0.00  0.06  0.75  0.00  0.00  0.72  0.00
  YS02163301YS02001633    1.00   0.00  0.16  0.00  0.84  0.00  0.00  0.00  0.00  0.00
  YS02163601YS02164001    1.00   0.00  0.08  0.00  0.92  0.00  0.00  0.00  0.00  0.00
  YS02164001YS02001641    1.00   0.01  0.07  0.00  0.92  0.00  0.00  0.00  0.06  0.00
  
  
  *************************
  Conduit Surcharge Summary
  *************************
  
  ----------------------------------------------------------------------------
                                                           Hours        Hours 
                         --------- Hours Full --------   Above Full   Capacity
  Conduit                Both Ends  Upstream  Dnstream   Normal Flow   Limited
  ----------------------------------------------------------------------------
  WS02003072WS02003073        0.01      0.01      0.01      1.41         0.01
  WS02004404WS02004405        0.01      0.01      0.01      1.65         0.01
  WS02004405WS02004406        0.01      0.01      0.01      0.51         0.01
  WS02006109WS02006110        0.53      0.53      1.31      0.69         0.01
  WS02006110WS02006113        0.01      0.01      1.30      0.01         0.01
  WS02006111WS02006112        0.01      0.01      1.38      0.01         0.01
  WS02006112WS02006115        0.01      0.01      0.83      0.01         0.01
  WS02006228WS02006109        1.28      1.31      1.28      1.41         1.28
  WS02006229WS02006228        1.28      1.28      1.28      1.36         1.26
  WS02006230WS02006229        1.32      1.35      1.32      2.38         1.32
  WS02006231WS02006230        0.53      0.53      0.80      1.93         0.01
  WS02006232WS02006231        0.72      0.72      1.31      0.82         0.01
  WS02006234WS02006232        1.23      1.23      1.31      0.80         0.79
  WS02006235WS02006234        1.09      1.10      1.23      1.84         0.02
  WS02006238WS02006235        1.26      1.26      1.31      0.01         0.01
  WS02006239WS02006238        1.29      1.31      1.29      1.31         1.08
  WS02006240WS02006239        1.26      1.29      1.26      1.31         1.01
  WS02006242WS02006240        1.28      1.28      1.31      1.38         0.01
  WS02006243WS02006242        1.29      1.29      1.30      0.01         0.06
  WS02006245WS02006243        1.28      1.28      1.28      0.75         0.69
  WS02006247WS02006245        1.28      1.28      1.28      1.48         1.26
  WS02006248WS02006247        1.27      1.27      1.28      0.01         0.07
  WS02006249WS02006248        1.27      1.27      1.27      1.47         0.01
  WS02006251WS02006249        1.27      1.27      1.27      1.37         1.17
  WS02006252WS02006251        1.41      1.41      1.42      1.42         0.01
  WS02006256WS02006235        1.82      1.89      3.72      1.18         0.01
  YS02001580YS02001583        0.41      0.41      0.46      0.01         0.01
  YS02001583YS02001586        0.42      0.42      0.53      0.01         0.01
  YS02001586YS02001590        0.54      0.54      0.59      0.01         0.01
  YS02001590YS02001593        0.59      0.59      0.61      0.64         0.01
  YS02001593YS02001596        0.60      0.60      0.68      0.01         0.01
  YS02001596YS02001600        0.71      0.71      0.80      0.01         0.01
  YS02001600YS02001601        0.85      0.85      1.14      0.01         0.01
  YS02001601YS02001602        1.01      1.01      1.19      0.80         0.01
  YS02001602YS02001605        0.96      0.96      1.01      1.95         0.01
  YS02001605YS02001607        0.92      0.96      0.92      1.09         0.92
  YS02001607YS02001610        0.56      0.56      0.58      0.01         0.01
  YS02001610YS02001613        0.56      0.56      0.58      0.01         0.01
  YS02001613YS02001616        0.52      0.52      0.56      0.01         0.01
  YS02001616YS02001619        0.51      0.51      0.52      0.01         0.01
  YS02001619YS02001622        0.50      0.51      0.50      0.61         0.48
  YS02001622YS02001625        0.50      0.50      0.66      0.01         0.01
  YS02001625YS02001629        0.46      0.46      0.66      0.01         0.01
  YS02001629YS02163301        0.65      0.65      0.66      0.14         0.14
  YS02001633YS02163601        0.67      0.67      0.70      0.31         0.31
  YS02001641YS02001644        0.60      0.62      0.60      1.25         0.59
  YS02001644YS02001647        0.43      0.43      0.60      0.03         0.01
  YS02001647YS02001649        0.43      0.43      0.53      0.01         0.01
  YS02001649YS02001757        0.53      0.53      0.58      0.10         0.13
  YS02001652YS02001649        0.38      0.38      0.53      0.01         0.01
  YS02001655YS02001652        0.23      0.23      0.36      0.01         0.01
  YS02001658YS02001655        0.08      0.08      0.23      0.01         0.01
  YS02001661YS02001658        0.01      0.01      0.08      0.01         0.01
  YS02001664YS02001661        0.01      0.01      0.02      0.01         0.01
  YS02001745YS02001748        0.01      0.01      0.01      0.01         0.01
  YS02001748YS02001751        0.05      0.05      0.13      0.01         0.01
  YS02001751YS02001754        0.13      0.13      0.26      0.01         0.01
  YS02001754YS02001757        0.31      0.31      0.58      0.01         0.01
  YS02001757CaochengTiaoxuchi        0.55      0.58      1.04      0.25         0.21
  YS02001759YS02001757        0.49      0.49      0.58      0.01         0.01
  YS02001762YS02001759        0.46      0.46      0.49      0.01         0.02
  YS02001765YS02001762        0.42      0.42      0.46      0.01         0.01
  YS02001767YS02001765        0.39      0.39      0.42      0.01         0.02
  YS02001770YS02001767        0.38      0.38      0.39      0.37         0.28
  YS02001774YS02001770        0.37      0.37      0.44      0.01         0.01
  YS02001779YS02001774        0.27      0.27      0.44      0.01         0.01
  YS02001783YS02001784        0.35      0.37      0.35      0.47         0.35
  YS02001784YS02001785        0.26      0.35      0.26      0.65         0.26
  YS02001786YS02001788        0.01      0.26      0.01      0.55         0.01
  YS02001790YS02001791        0.01      0.01      0.01      0.34         0.01
  YS02001793JiankangQianchi        0.01      0.01      7.70      0.01         0.01
  YS02001882YS02001884        0.32      0.32      0.33      0.01         0.01
  YS02001884YS02001887        0.35      0.35      0.36      0.01         0.01
  YS02001887YS02001890        0.37      0.37      0.38      0.04         0.01
  YS02001890YS02001895        0.32      0.32      0.39      0.01         0.01
  YS02001895YS02001898        0.31      0.31      0.32      0.01         0.01
  YS02001898YS02001901        0.32      0.32      0.35      0.01         0.01
  YS02001901YS02001904        0.34      0.34      0.35      0.01         0.01
  YS02001904YS02001907        0.34      0.34      0.53      0.01         0.01
  YS02001907YS02006553        0.66      0.66      0.71      0.01         0.01
  YS02001910YS02001907        0.39      0.39      0.52      0.01         0.01
  YS02001915YS02001910        0.32      0.32      0.39      0.01         0.01
  YS02001918YS02001915        0.25      0.25      0.32      0.01         0.01
  YS02001920YS02001918        0.25      0.25      0.26      0.01         0.01
  YS02001923YS02001920        0.22      0.22      0.26      0.01         0.01
  YS02001926YS02001923        0.01      0.01      0.02      0.01         0.01
  YS02001929YS02001926        0.01      0.01      0.02      0.01         0.01
  YS02006553YS02006556        0.46      0.46      0.53      0.01         0.01
  YS02006556YS02006558        0.50      0.50      0.55      0.01         0.01
  YS02006558YS02006561        0.28      0.45      0.28      0.61         0.28
  YS02006561YS02001783        0.22      0.22      0.37      0.01         0.01
  YS02163301YS02001633        0.66      0.66      0.69      0.01         0.01
  YS02163601YS02164001        0.63      0.63      0.70      0.03         0.01
  YS02164001YS02001641        0.62      0.63      0.62      0.61         0.51
  
  
  ***************
  Pumping Summary
  ***************
  
  ---------------------------------------------------------------------------------------------------------
                                                  Min       Avg       Max     Total     Power    % Time Off
                        Percent   Number of      Flow      Flow      Flow    Volume     Usage    Pump Curve
  Pump                 Utilized   Start-Ups       LPS       LPS       LPS  10^6 ltr     Kw-hr    Low   High
  ---------------------------------------------------------------------------------------------------------
  CC-R1                   17.01           2      0.00    683.00    683.00     3.345     61.05    0.0   27.8
  CC-R2                   15.92           2      0.00    683.00    683.00     3.131     57.09    0.0   29.7
  CC-S1                   18.70           2      0.00    200.00    200.00     1.077      6.38    0.0    0.0
  CC-S2                   17.69           2      0.00    200.00    200.00     1.019      6.04    0.0    0.0
  JK-R1                    5.96          10      0.00   1000.00   1000.00     1.718     20.62    0.0    0.0
  JK-R2                    0.16           1      0.00   1000.00   1000.00     0.047      0.36    0.0    0.0
  JK-S                    14.65          24      0.00    300.00    300.00     1.266     16.41    0.0    0.0
  XR-1                    97.91           2      0.00     95.00     95.00     2.679      9.60    0.0    0.0
  XR-2                    93.94           2      0.00     95.00     95.00     2.570      8.76    0.0    0.0
  XR-3                     0.00           1      0.00     95.00     95.00     0.000      0.00    0.0    0.0
  XR-4                     0.00           1      0.00     95.00     95.00     0.000      0.00    0.0    0.0
  

  Analysis begun on:  Wed Nov  5 16:32:26 2025
  Analysis ended on:  Wed Nov  5 16:32:29 2025
  Total elapsed time: 00:00:03