
  EPA STORM WATER MANAGEMENT MODEL - VERSION 5.2 (Build 5.2.4)
  PYSWMM TOOLKIT API - VERSION v1.0 (2023-11-27)
  ------------------------------------------------------------

  WARNING 04: minimum elevation drop used for Conduit WS02004404WS02004405
  WARNING 03: negative offset ignored for Link YS02001904YS02001907
  
  ****************
  Analysis Options
  ****************
  Flow Units ............... LPS
  Process Models:
    Rainfall/Runoff ........ YES
    RDII ................... NO
    Snowmelt ............... NO
    Groundwater ............ NO
    Flow Routing ........... YES
    Ponding Allowed ........ NO
    Water Quality .......... NO
  Infiltration Method ...... HORTON
  Flow Routing Method ...... DYNWAVE
  Surcharge Method ......... EXTRAN
  Starting Date ............ 08/28/2015 08:00:00
  Ending Date .............. 08/28/2015 16:00:00
  Antecedent Dry Days ...... 8.0
  Report Time Step ......... 00:01:00
  Wet Time Step ............ 00:01:00
  Dry Time Step ............ 00:01:00
  Routing Time Step ........ 30.00 sec
  Variable Time Step ....... YES
  Maximum Trials ........... 8
  Number of Threads ........ 4
  Head Tolerance ........... 0.001500 m
  
  
  **************************        Volume         Depth
  Runoff Quantity Continuity     hectare-m            mm
  **************************     ---------       -------
  Initial LID Storage ......         0.049         1.488
  Total Precipitation ......         1.637        49.347
  Evaporation Loss .........         0.000         0.000
  Infiltration Loss ........         0.075         2.276
  Surface Runoff ...........         1.191        35.903
  Final Storage ............         0.421        12.682
  Continuity Error (%) .....        -0.052
  
  
  **************************        Volume        Volume
  Flow Routing Continuity        hectare-m      10^6 ltr
  **************************     ---------     ---------
  Dry Weather Inflow .......         0.602         6.020
  Wet Weather Inflow .......         1.191        11.909
  Groundwater Inflow .......         0.000         0.000
  RDII Inflow ..............         0.000         0.000
  External Inflow ..........         0.105         1.045
  External Outflow .........         1.670        16.704
  Flooding Loss ............         0.199         1.987
  Evaporation Loss .........         0.000         0.000
  Exfiltration Loss ........         0.000         0.000
  Initial Stored Volume ....         0.303         3.031
  Final Stored Volume ......         0.336         3.356
  Continuity Error (%) .....        -0.192
  
  
  *************************
  Highest Continuity Errors
  *************************
  Node YS02001583 (-5.15%)
  Node YS02001884 (4.78%)
  Node YS02001774 (1.84%)
  
  
  ***************************
  Time-Step Critical Elements
  ***************************
  Link WS02004404WS02004405 (35.04%)
  Link WS02006238WS02006235 (19.04%)
  Link WS02006252WS02006251 (12.84%)
  Link YS02001791YS02001793 (9.99%)
  Link WS02003066WSF200 (5.87%)
  
  
  ********************************
  Highest Flow Instability Indexes
  ********************************
  Link WS02006113WS02006111 (26)
  Link WS02006238WS02006235 (21)
  Link WS02006111WS02006112 (18)
  Link WS02006229WS02006228 (17)
  Link WS02006235WS02006234 (15)
  
  
  *********************************
  Most Frequent Nonconverging Nodes
  *********************************
  Node CC-1 (9.10%)
  Node CC-2 (9.10%)
  Node JK-1 (9.10%)
  Node JK-2 (9.10%)
  Node WSC (9.10%)
  
  
  *************************
  Routing Time Step Summary
  *************************
  Minimum Time Step           :     0.02 sec
  Average Time Step           :     3.44 sec
  Maximum Time Step           :     7.04 sec
  % of Time in Steady State   :     0.00
  Average Iterations per Step :     2.92
  % of Steps Not Converging   :     9.10
  Time Step Frequencies       :
     30.000 - 13.228 sec      :     0.00 %
     13.228 -  5.833 sec      :    25.77 %
      5.833 -  2.572 sec      :    31.56 %
      2.572 -  1.134 sec      :    23.28 %
      1.134 -  0.500 sec      :    19.38 %
  
  
  ***************************
  Subcatchment Runoff Summary
  ***************************
  
  ------------------------------------------------------------------------------------------------------------------------------
                            Total      Total      Total      Total     Imperv       Perv      Total       Total     Peak  Runoff
                           Precip      Runon       Evap      Infil     Runoff     Runoff     Runoff      Runoff   Runoff   Coeff
  Subcatchment                 mm         mm         mm         mm         mm         mm         mm    10^6 ltr      LPS
  ------------------------------------------------------------------------------------------------------------------------------
  sub60                     49.35       0.00       0.00       1.36      32.59       3.21      35.80        0.47   315.50   0.726
  sub61                     49.35       0.00       0.00       2.08      32.56       4.78      37.33        0.69   459.61   0.757
  sub62                     49.35       0.00       0.00       0.92      34.70       2.18      36.89        1.01   625.97   0.748
  sub63                     49.35       0.00       0.00       3.82      27.89       7.90      35.78        0.81   516.39   0.725
  sub64                     49.35       0.00       0.00       1.83      31.75       3.94      35.68        0.86   511.51   0.723
  sub65                     49.35       0.00       0.00       1.68      34.26       3.59      37.85        1.04   597.53   0.767
  sub66                     49.35       0.00       0.00       4.45      26.95       6.90      33.85        1.58   767.47   0.686
  sub67                     49.35       0.00       0.00       0.92      35.59       2.27      37.85        0.70   491.62   0.767
  sub68                     49.35       0.00       0.00       1.60      31.43       3.66      35.09        0.97   624.53   0.711
  sub69                     49.35       0.00       0.00       1.46      33.16       4.41      37.57        1.39   773.54   0.761
  sub70                     49.35       0.00       0.00       4.87      26.56       8.86      35.42        1.02   444.22   0.718
  sub71                     49.35       0.00       0.00       0.85      31.52       1.97      33.49        0.88   517.84   0.679
  sub72                     49.35       0.00       0.00       0.81      34.04       1.83      35.87        0.49   266.44   0.727
  

  ***********************
  LID Performance Summary
  ***********************

  --------------------------------------------------------------------------------------------------------------------
                                         Total      Evap     Infil   Surface    Drain    Initial     Final  Continuity
                                        Inflow      Loss      Loss   Outflow   Outflow   Storage   Storage       Error
  Subcatchment      LID Control             mm        mm        mm        mm        mm        mm        mm           %
  --------------------------------------------------------------------------------------------------------------------
  sub60             GreenRoof            49.35      0.00      0.00      0.00      0.00      7.05     56.49       -0.16
  sub61             GreenRoof            49.35      0.00      0.00      0.00      0.00      7.05     56.49       -0.16
  sub62             GreenRoof            49.35      0.00      0.00      0.00      0.00      7.05     56.49       -0.16
  sub63             GreenRoof            49.35      0.00      0.00      0.00      0.00      7.05     56.49       -0.16
  sub64             GreenRoof            49.35      0.00      0.00      0.00      0.00      7.05     56.49       -0.16
  sub65             GreenRoof            49.35      0.00      0.00      0.00      0.00      7.05     56.49       -0.16
  sub66             GreenRoof            49.35      0.00      0.00      0.00      0.00      7.05     56.49       -0.16
  sub67             GreenRoof            49.35      0.00      0.00      0.00      0.00      7.05     56.49       -0.16
  sub68             GreenRoof            49.35      0.00      0.00      0.00      0.00      7.05     56.49       -0.16
  sub69             GreenRoof            49.35      0.00      0.00      0.00      0.00      7.05     56.49       -0.16
  sub70             GreenRoof            49.35      0.00      0.00      0.00      0.00      7.05     56.49       -0.16
  sub71             GreenRoof            49.35      0.00      0.00      0.00      0.00      7.05     56.49       -0.16
  sub72             GreenRoof            49.35      0.00      0.00      0.00      0.00      7.05     56.49       -0.16
  
  ******************
  Node Depth Summary
  ******************
  
  ---------------------------------------------------------------------------------
                                 Average  Maximum  Maximum  Time of Max    Reported
                                   Depth    Depth      HGL   Occurrence   Max Depth
  Node                 Type       Meters   Meters   Meters  days hr:min      Meters
  ---------------------------------------------------------------------------------
  WS02001211           JUNCTION     0.60     0.64     5.48     0  02:40        0.64
  WS02001212           JUNCTION     0.33     0.38     5.45     0  02:47        0.38
  WS02001213           JUNCTION     0.53     0.65     5.41     0  02:46        0.65
  WS02003059           JUNCTION     0.59     0.72     5.40     0  02:45        0.72
  WS02003060           JUNCTION     0.29     0.45     5.39     0  02:45        0.45
  WS02003066           JUNCTION     0.15     0.30     5.85     0  02:44        0.30
  WS02003067           JUNCTION     0.42     0.70     6.02     0  02:44        0.70
  WS02003069           JUNCTION     0.33     0.51     5.10     0  02:45        0.51
  WS02003072           JUNCTION     0.39     0.58     4.95     0  02:46        0.58
  WS02003073           JUNCTION     0.23     0.35     4.41     0  02:37        0.35
  WS02004138           JUNCTION     0.13     0.14     7.39     0  00:29        0.14
  WS02004139           JUNCTION     0.54     0.58     5.49     0  02:41        0.58
  WS02004401           JUNCTION     0.51     0.85     6.85     0  02:41        0.85
  WS02004402           JUNCTION     0.54     0.88     6.84     0  02:41        0.88
  WS02004403           JUNCTION     0.56     0.89     6.82     0  02:42        0.89
  WS02004404           JUNCTION     0.64     0.96     6.81     0  02:42        0.96
  WS02004405           JUNCTION     0.64     0.96     6.81     0  02:42        0.96
  WS02004406           JUNCTION     0.65     0.96     6.79     0  02:42        0.96
  WS02004407           JUNCTION     0.13     0.30     6.61     0  02:42        0.30
  WS02004409           JUNCTION     0.30     0.67     6.44     0  02:42        0.67
  WS02004410           JUNCTION     0.32     0.68     6.40     0  02:43        0.68
  WS02004411           JUNCTION     0.35     0.69     6.37     0  02:43        0.69
  WS02004412           JUNCTION     0.37     0.70     6.34     0  02:43        0.70
  WS02004413           JUNCTION     0.53     0.86     6.33     0  02:44        0.86
  WS02006109           JUNCTION     0.57     1.03     7.65     0  03:16        0.97
  WS02006110           JUNCTION     0.57     0.99     7.58     0  02:08        0.92
  WS02006111           JUNCTION     0.14     0.29     6.99     0  03:17        0.29
  WS02006112           JUNCTION     0.66     1.06     6.95     0  02:39        1.05
  WS02006113           JUNCTION     0.21     0.46     7.35     0  03:17        0.46
  WS02006115           JUNCTION     0.39     0.75     6.89     0  02:41        0.75
  WS02006116           JUNCTION     0.48     0.83     6.87     0  02:41        0.83
  WS02006228           JUNCTION     0.56     1.06     7.71     0  03:16        1.02
  WS02006229           JUNCTION     0.53     1.07     7.77     0  03:16        1.02
  WS02006230           JUNCTION     0.53     1.20     7.94     0  03:16        1.10
  WS02006231           JUNCTION     0.34     1.06     8.18     0  03:15        0.85
  WS02006232           JUNCTION     0.47     1.18     8.22     0  03:15        1.08
  WS02006234           JUNCTION     0.40     1.15     8.31     0  02:07        1.10
  WS02006235           JUNCTION     0.44     1.26     8.43     0  03:15        1.26
  WS02006238           JUNCTION     0.47     1.30     8.44     0  03:15        1.30
  WS02006239           JUNCTION     0.42     1.67     8.88     0  02:07        1.25
  WS02006240           JUNCTION     0.40     1.54     8.83     0  02:07        1.18
  WS02006242           JUNCTION     0.45     1.55     8.82     0  02:07        1.22
  WS02006243           JUNCTION     0.37     1.48     8.90     0  02:06        1.13
  WS02006245           JUNCTION     0.37     1.19     8.67     0  02:07        1.15
  WS02006247           JUNCTION     0.39     1.16     8.66     0  03:15        1.14
  WS02006248           JUNCTION     0.36     1.10     8.69     0  02:19        1.10
  WS02006249           JUNCTION     0.38     1.09     8.69     0  02:07        1.09
  WS02006251           JUNCTION     0.38     2.19     9.86     0  02:07        1.12
  WS02006252           JUNCTION     0.26     1.50     9.74     0  00:00        0.68
  WS02006256           JUNCTION     1.10     2.35     9.28     0  00:00        2.35
  WSF200               JUNCTION     0.13     0.31     5.54     0  02:44        0.31
  YS02001580           JUNCTION     0.08     1.05     9.59     0  02:08        1.05
  YS02001583           JUNCTION     0.11     1.00     9.50     0  02:08        0.94
  YS02001586           JUNCTION     0.19     1.13     9.30     0  02:08        1.13
  YS02001590           JUNCTION     0.30     1.40     9.26     0  02:08        1.38
  YS02001593           JUNCTION     0.22     1.32     9.19     0  02:08        1.30
  YS02001596           JUNCTION     0.32     1.68     9.10     0  02:08        1.66
  YS02001600           JUNCTION     0.42     1.87     9.00     0  02:08        1.87
  YS02001601           JUNCTION     0.61     2.06     8.90     0  02:08        2.06
  YS02001602           JUNCTION     0.52     1.87     8.77     0  02:08        1.87
  YS02001605           JUNCTION     0.48     1.78     8.68     0  02:19        1.78
  YS02001607           JUNCTION     0.45     1.68     8.53     0  02:28        1.68
  YS02001610           JUNCTION     0.50     1.68     8.48     0  02:08        1.68
  YS02001613           JUNCTION     0.45     1.70     8.54     0  02:28        1.70
  YS02001616           JUNCTION     0.38     1.61     8.52     0  02:28        1.61
  YS02001619           JUNCTION     0.36     1.61     8.54     0  02:28        1.61
  YS02001622           JUNCTION     0.35     1.62     8.52     0  02:28        1.62
  YS02001625           JUNCTION     0.61     1.78     8.38     0  02:10        1.78
  YS02001629           JUNCTION     0.49     1.85     8.40     0  02:11        1.85
  YS02001633           JUNCTION     0.56     2.05     8.51     0  02:11        2.02
  YS02001641           JUNCTION     0.53     1.96     8.40     0  02:13        1.96
  YS02001644           JUNCTION     0.53     1.92     8.35     0  02:12        1.92
  YS02001647           JUNCTION     0.30     1.74     8.35     0  02:12        1.70
  YS02001649           JUNCTION     0.35     1.93     8.32     0  02:13        1.87
  YS02001652           JUNCTION     0.23     1.81     8.41     0  02:12        1.73
  YS02001655           JUNCTION     0.17     1.78     8.63     0  02:12        1.52
  YS02001658           JUNCTION     0.12     1.75     8.89     0  02:12        1.27
  YS02001661           JUNCTION     0.15     1.05     8.46     0  02:14        1.05
  YS02001664           JUNCTION     0.06     0.51     8.43     0  02:13        0.31
  YS02001745           JUNCTION     0.06     0.71     8.22     0  02:12        0.70
  YS02001748           JUNCTION     0.11     1.69     8.77     0  02:13        1.04
  YS02001751           JUNCTION     0.14     1.66     8.54     0  02:13        1.24
  YS02001754           JUNCTION     0.19     1.76     8.37     0  02:13        1.52
  YS02001757           JUNCTION     0.36     2.00     8.26     0  02:13        1.87
  YS02001759           JUNCTION     0.30     1.94     8.31     0  02:13        1.81
  YS02001762           JUNCTION     0.29     1.95     8.35     0  02:13        1.80
  YS02001765           JUNCTION     0.27     1.92     8.37     0  02:13        1.76
  YS02001767           JUNCTION     0.26     1.89     8.38     0  02:13        1.74
  YS02001770           JUNCTION     0.28     1.91     8.40     0  02:13        1.77
  YS02001774           JUNCTION     0.34     1.97     8.39     0  02:13        1.84
  YS02001779           JUNCTION     0.17     1.68     8.37     0  02:11        1.58
  YS02001783           JUNCTION     0.26     1.24     7.38     0  02:12        1.21
  YS02001784           JUNCTION     0.28     1.12     7.18     0  02:12        1.10
  YS02001786           JUNCTION     0.23     0.87     6.90     0  02:12        0.86
  YS02001788           JUNCTION     0.17     0.62     6.60     0  02:12        0.62
  YS02001790           JUNCTION     0.20     0.72     6.36     0  02:16        0.71
  YS02001791           JUNCTION     0.13     0.44     5.91     0  02:14        0.43
  YS02001793           JUNCTION     0.07     0.28     5.12     0  02:16        0.27
  YS02001882           JUNCTION     0.31     1.69     8.40     0  02:12        1.62
  YS02001884           JUNCTION     0.40     1.79     8.40     0  02:11        1.72
  YS02001887           JUNCTION     0.48     1.97     8.50     0  02:11        1.97
  YS02001890           JUNCTION     0.51     1.81     8.32     0  02:11        1.81
  YS02001895           JUNCTION     0.28     1.75     8.50     0  02:11        1.75
  YS02001898           JUNCTION     0.29     1.77     8.51     0  02:11        1.77
  YS02001901           JUNCTION     0.40     1.87     8.48     0  02:11        1.87
  YS02001904           JUNCTION     0.38     1.85     8.48     0  02:11        1.85
  YS02001907           JUNCTION     0.70     1.96     8.25     0  02:11        1.96
  YS02001910           JUNCTION     0.50     1.97     8.48     0  02:12        1.94
  YS02001915           JUNCTION     0.31     1.91     8.63     0  02:12        1.88
  YS02001918           JUNCTION     0.15     1.81     8.88     0  02:12        1.81
  YS02001920           JUNCTION     0.23     2.14     9.15     0  02:12        2.06
  YS02001923           JUNCTION     0.11     2.03     9.29     0  02:12        2.03
  YS02001926           JUNCTION     0.15     1.90     9.35     0  02:12        1.90
  YS02001929           JUNCTION     0.08     1.78     9.47     0  02:12        1.78
  YS02006553           JUNCTION     0.70     1.97     8.25     0  02:13        1.97
  YS02006556           JUNCTION     0.67     1.93     8.24     0  02:12        1.92
  YS02006558           JUNCTION     0.71     1.97     8.24     0  02:12        1.96
  YS02006561           JUNCTION     0.15     0.94     7.60     0  02:12        0.88
  YS02163301           JUNCTION     0.51     1.94     8.46     0  02:11        1.92
  YS02163601           JUNCTION     0.59     2.07     8.47     0  02:11        2.05
  YS02164001           JUNCTION     0.52     1.97     8.43     0  02:13        1.97
  CC-1                 OUTFALL      0.00     0.00     0.00     0  00:00        0.00
  CC-2                 OUTFALL      0.00     0.00     0.00     0  00:00        0.00
  JK-1                 OUTFALL      0.00     0.00     0.00     0  00:00        0.00
  JK-2                 OUTFALL      0.00     0.00     0.00     0  00:00        0.00
  WSC                  OUTFALL      0.23     0.35     1.02     0  02:38        0.35
  CC-storage           STORAGE      0.80     1.53     7.03     0  02:30        1.53
  JK-storage           STORAGE      3.02     4.22     5.02     0  02:15        4.19
  XR-storage           STORAGE      7.83     9.26     7.26     0  08:00        9.26
  
  
  *******************
  Node Inflow Summary
  *******************
  
  -------------------------------------------------------------------------------------------------
                                  Maximum  Maximum                  Lateral       Total        Flow
                                  Lateral    Total  Time of Max      Inflow      Inflow     Balance
                                   Inflow   Inflow   Occurrence      Volume      Volume       Error
  Node                 Type           LPS      LPS  days hr:min    10^6 ltr    10^6 ltr     Percent
  -------------------------------------------------------------------------------------------------
  WS02001211           JUNCTION      7.35   200.52     0  03:04       0.212        5.44       0.611
  WS02001212           JUNCTION      0.00   202.71     0  03:04           0        5.41       0.290
  WS02001213           JUNCTION      0.00   204.57     0  03:36           0        5.39       0.331
  WS02003059           JUNCTION      0.00   209.55     0  03:37           0        5.38       0.592
  WS02003060           JUNCTION     16.53   751.64     0  02:44       0.476        8.91       0.157
  WS02003066           JUNCTION      0.00   536.91     0  02:44           0        3.09       0.039
  WS02003067           JUNCTION      0.00   536.86     0  02:44           0        3.09       0.130
  WS02003069           JUNCTION      0.32   751.32     0  02:45     0.00922         8.9       0.166
  WS02003072           JUNCTION      0.00   751.02     0  02:45           0        8.88       0.227
  WS02003073           JUNCTION      1.82   752.74     0  02:39      0.0524        8.91       0.234
  WS02004138           JUNCTION      0.00   380.00     0  00:00           0        5.25       0.053
  WS02004139           JUNCTION      0.32   191.16     0  00:29     0.00924        5.26       0.509
  WS02004401           JUNCTION      0.00   540.49     0  02:41           0        3.19       0.311
  WS02004402           JUNCTION      0.00   539.62     0  02:41           0        3.18       0.317
  WS02004403           JUNCTION      0.00   539.31     0  02:41           0        3.17       0.311
  WS02004404           JUNCTION      0.16   539.01     0  02:42     0.00467        3.16       0.268
  WS02004405           JUNCTION      0.04   538.95     0  02:42      0.0011        3.15       0.381
  WS02004406           JUNCTION      0.00   539.11     0  02:42           0        3.14       0.650
  WS02004407           JUNCTION      0.00   538.29     0  02:42           0        3.12       0.030
  WS02004409           JUNCTION      0.00   537.82     0  02:42           0        3.12       0.073
  WS02004410           JUNCTION      0.00   537.51     0  02:43           0        3.12       0.125
  WS02004411           JUNCTION      0.00   537.26     0  02:43           0        3.11       0.164
  WS02004412           JUNCTION      0.00   537.11     0  02:43           0        3.11       0.225
  WS02004413           JUNCTION      0.00   537.21     0  02:43           0         3.1       0.405
  WS02006109           JUNCTION      1.23   549.89     0  03:16      0.0354        3.23       0.256
  WS02006110           JUNCTION      0.00   550.52     0  03:16           0        3.22       0.193
  WS02006111           JUNCTION      0.00   560.60     0  02:47           0        3.21       0.021
  WS02006112           JUNCTION      0.00   543.34     0  03:17           0        3.21       0.545
  WS02006113           JUNCTION      0.00   555.18     0  03:16           0        3.22       0.049
  WS02006115           JUNCTION      0.00   547.40     0  02:41           0         3.2       0.194
  WS02006116           JUNCTION      0.00   542.02     0  02:41           0        3.19       0.140
  WS02006228           JUNCTION      0.00   547.22     0  03:16           0         3.2       0.105
  WS02006229           JUNCTION      0.00   545.89     0  03:16           0         3.2       0.172
  WS02006230           JUNCTION     10.28   579.65     0  03:16       0.296        3.21       0.205
  WS02006231           JUNCTION      0.00   568.40     0  03:15           0        2.91      -0.155
  WS02006232           JUNCTION      0.00   567.22     0  03:15           0        2.92       0.356
  WS02006234           JUNCTION      0.00   562.23     0  03:15           0        2.91      -0.292
  WS02006235           JUNCTION      0.00   559.73     0  03:15           0        2.99       0.316
  WS02006238           JUNCTION      0.00   419.07     0  02:56           0        2.09      -0.124
  WS02006239           JUNCTION      0.00   419.61     0  02:56           0        2.05      -0.037
  WS02006240           JUNCTION      0.00   417.53     0  02:56           0        2.01      -0.061
  WS02006242           JUNCTION      0.00   421.97     0  03:15           0        1.98      -0.162
  WS02006243           JUNCTION      0.00   422.31     0  03:15           0        1.97      -0.005
  WS02006245           JUNCTION      0.00   421.19     0  03:15           0        1.97       0.518
  WS02006247           JUNCTION      0.00   421.67     0  03:15           0        1.97      -0.016
  WS02006248           JUNCTION      0.00   419.93     0  03:15           0        1.97      -0.148
  WS02006249           JUNCTION      0.00   476.36     0  02:07           0        2.21       0.635
  WS02006251           JUNCTION      0.08   426.45     0  02:07     0.00222        2.21       0.016
  WS02006252           JUNCTION      0.00   400.00     0  00:00           0         2.2      -0.336
  WS02006256           JUNCTION      0.00   300.00     0  00:00           0        1.35      -0.453
  WSF200               JUNCTION      0.00   536.97     0  02:44           0        3.08       0.014
  YS02001580           JUNCTION      0.00   115.66     0  02:08           0     0.00398      -5.080
  YS02001583           JUNCTION      0.00   163.41     0  02:08           0      0.0149      -4.897
  YS02001586           JUNCTION    444.22   444.25     0  02:15        1.02        1.03       0.116
  YS02001590           JUNCTION      0.00   318.05     0  02:21           0       0.962      -0.034
  YS02001593           JUNCTION      0.00   317.90     0  02:21           0       0.962       0.008
  YS02001596           JUNCTION      0.00   317.94     0  02:16           0       0.962      -0.009
  YS02001600           JUNCTION      0.00   317.92     0  02:19           0       0.962      -0.002
  YS02001601           JUNCTION    773.54  1091.02     0  02:14        1.39        2.35       0.027
  YS02001602           JUNCTION      0.00   514.20     0  02:08           0        1.81       0.016
  YS02001605           JUNCTION      0.00   514.06     0  02:08           0        1.75       0.021
  YS02001607           JUNCTION      0.00   513.79     0  02:08           0        1.75       0.103
  YS02001610           JUNCTION      0.00   511.50     0  02:07           0        1.75       0.124
  YS02001613           JUNCTION      0.00   511.66     0  02:08           0         1.6       0.100
  YS02001616           JUNCTION      0.00   512.88     0  02:07           0         1.6       0.024
  YS02001619           JUNCTION    767.47   928.33     0  02:10        1.58        3.17      -0.001
  YS02001622           JUNCTION      0.00   926.98     0  02:10           0        3.17      -0.002
  YS02001625           JUNCTION      0.00   926.69     0  02:10           0        3.17       0.279
  YS02001629           JUNCTION      0.00   926.71     0  02:10           0        2.84       0.025
  YS02001633           JUNCTION    597.73  1367.75     0  02:10        1.05        3.88       0.085
  YS02001641           JUNCTION      0.00  1365.13     0  02:10           0        3.88       0.070
  YS02001644           JUNCTION    511.55  1747.11     0  02:10       0.858        4.74       0.067
  YS02001647           JUNCTION      0.00  1746.77     0  02:10           0        4.71       0.010
  YS02001649           JUNCTION      0.00  1963.77     0  02:10           0        5.53       0.006
  YS02001652           JUNCTION      0.00   646.93     0  02:14           0       0.819      -0.143
  YS02001655           JUNCTION      0.15   644.93     0  02:14     0.00443       0.818       0.065
  YS02001658           JUNCTION      0.00   652.44     0  02:12           0       0.812      -0.051
  YS02001661           JUNCTION      0.00   743.60     0  02:13           0       0.813       0.008
  YS02001664           JUNCTION    516.39   516.39     0  02:13       0.812       0.812      -0.010
  YS02001745           JUNCTION    315.51   396.39     0  02:12       0.471       0.471       0.273
  YS02001748           JUNCTION      0.04   558.70     0  02:13      0.0013       0.473      -0.480
  YS02001751           JUNCTION      0.01   379.33     0  02:13    0.000317       0.484       0.140
  YS02001754           JUNCTION      0.26   381.06     0  02:13     0.00749       0.501      -0.190
  YS02001757           JUNCTION      0.00  3064.60     0  02:14           0        7.74       0.013
  YS02001759           JUNCTION    459.65  1102.42     0  02:12       0.686        1.72      -0.017
  YS02001762           JUNCTION      0.00   648.38     0  02:12           0        1.03      -0.005
  YS02001765           JUNCTION      0.00   642.76     0  02:13           0        1.03       0.022
  YS02001767           JUNCTION      0.54   641.29     0  02:13      0.0154        1.03      -0.030
  YS02001770           JUNCTION    626.12   633.12     0  02:13        1.02        1.06      -0.077
  YS02001774           JUNCTION      0.00   410.06     0  02:11           0      0.0612       1.870
  YS02001779           JUNCTION      0.01   415.46     0  02:11    0.000144      0.0192      -3.331
  YS02001783           JUNCTION      0.00  1150.39     0  02:13           0        2.89       0.006
  YS02001784           JUNCTION      1.06  1151.70     0  02:13      0.0305        2.92       0.014
  YS02001786           JUNCTION      0.06  1151.36     0  02:13     0.00162        2.92       0.021
  YS02001788           JUNCTION      0.07  1152.29     0  02:13     0.00204        2.92       0.009
  YS02001790           JUNCTION      0.15  1167.47     0  02:12     0.00446        2.93       0.027
  YS02001791           JUNCTION      0.00  1272.85     0  02:16           0        2.93      -0.018
  YS02001793           JUNCTION      0.00  1226.08     0  02:18           0        2.93       0.008
  YS02001882           JUNCTION      0.00    62.42     0  02:10           0      0.0124       4.694
  YS02001884           JUNCTION      0.00    69.18     0  02:10           0      0.0483       5.018
  YS02001887           JUNCTION    492.07   492.28     0  02:13       0.717       0.751       0.569
  YS02001890           JUNCTION      0.00   491.62     0  02:13           0        0.71       0.701
  YS02001895           JUNCTION      0.00   488.02     0  02:13           0       0.704       0.192
  YS02001898           JUNCTION      0.00   488.47     0  02:13           0       0.703      -0.020
  YS02001901           JUNCTION      0.00   491.11     0  02:11           0       0.706       0.416
  YS02001904           JUNCTION      0.00   494.93     0  02:11           0        0.71       0.341
  YS02001907           JUNCTION      0.00  1452.09     0  02:13           0        2.15       0.816
  YS02001910           JUNCTION      0.00   975.73     0  02:13           0        1.45       0.492
  YS02001915           JUNCTION    517.86   974.84     0  02:13       0.876        1.49       0.085
  YS02001918           JUNCTION      0.00   457.86     0  02:13           0       0.643      -0.026
  YS02001920           JUNCTION      2.87   457.52     0  02:13      0.0827       0.627       0.169
  YS02001923           JUNCTION      0.04   416.42     0  02:13     0.00109       0.528      -0.155
  YS02001926           JUNCTION      0.05   633.38     0  02:12      0.0015       0.508      -0.154
  YS02001929           JUNCTION    266.44   438.29     0  02:12       0.493       0.496      -0.105
  YS02006553           JUNCTION      0.00   795.47     0  02:22           0        1.95       0.605
  YS02006556           JUNCTION      0.00   796.08     0  02:22           0        1.95       0.399
  YS02006558           JUNCTION    625.41  1160.65     0  02:12       0.991        2.92       0.114
  YS02006561           JUNCTION      0.00  1162.21     0  02:12           0        2.89      -0.005
  YS02163301           JUNCTION      0.00   927.42     0  02:10           0        2.84       0.049
  YS02163601           JUNCTION      0.11  1366.69     0  02:10     0.00317        3.88       0.124
  YS02164001           JUNCTION      0.00  1366.25     0  02:10           0        3.88       0.062
  CC-1                 OUTFALL       0.00   683.00     0  00:00           0        3.25       0.000
  CC-2                 OUTFALL       0.00   683.00     0  00:00           0        3.03       0.000
  JK-1                 OUTFALL       0.00  1000.00     0  00:00           0        1.48       0.000
  JK-2                 OUTFALL       0.00  1000.00     0  00:00           0      0.0484       0.000
  WSC                  OUTFALL       0.00   752.71     0  02:38           0        8.89       0.000
  CC-storage           STORAGE       0.00  3063.84     0  02:14           0        9.95      -0.237
  JK-storage           STORAGE       0.00  1196.02     0  02:16           0        3.08       0.254
  XR-storage           STORAGE     200.00   200.00     0  00:00        5.76        6.36       0.001
  
  
  **********************
  Node Surcharge Summary
  **********************
  
  Surcharging occurs when water rises above the top of the highest conduit.
  ---------------------------------------------------------------------
                                               Max. Height   Min. Depth
                                   Hours       Above Crown    Below Rim
  Node                 Type      Surcharged         Meters       Meters
  ---------------------------------------------------------------------
  WS02006109           JUNCTION        1.31          0.215        1.605
  WS02006110           JUNCTION        0.85          0.083        1.767
  WS02006112           JUNCTION        0.80          0.063        1.617
  WS02006228           JUNCTION        1.30          0.232        1.968
  WS02006229           JUNCTION        1.32          0.273        2.177
  WS02006230           JUNCTION        0.84          0.120        1.450
  WS02006231           JUNCTION        0.87          0.346        1.184
  WS02006232           JUNCTION        1.37          0.483        0.997
  WS02006234           JUNCTION        0.98          0.432        0.808
  WS02006235           JUNCTION        1.31          0.552        0.738
  WS02006238           JUNCTION        1.34          0.579        0.851
  WS02006239           JUNCTION        1.28          0.935        0.355
  WS02006240           JUNCTION        1.28          0.825        0.565
  WS02006242           JUNCTION        1.30          0.820        0.000
  WS02006243           JUNCTION        1.28          0.770        0.000
  WS02006245           JUNCTION        1.28          0.475        0.375
  WS02006247           JUNCTION        1.28          0.455        0.305
  WS02006248           JUNCTION        1.27          0.380        0.000
  WS02006249           JUNCTION        1.27          0.390        0.000
  WS02006251           JUNCTION        0.88          1.160        0.020
  WS02006252           JUNCTION        1.43          1.100        0.000
  WS02006256           JUNCTION        3.84          2.050        0.000
  YS02001580           JUNCTION        0.33          0.450        0.000
  YS02001583           JUNCTION        0.34          0.362        0.138
  YS02001586           JUNCTION        0.45          0.510        0.000
  YS02001590           JUNCTION        0.51          0.750        0.000
  YS02001593           JUNCTION        0.51          0.704        0.136
  YS02001596           JUNCTION        0.61          0.950        0.120
  YS02001600           JUNCTION        0.75          1.190        0.000
  YS02001601           JUNCTION        1.13          1.440        0.000
  YS02001602           JUNCTION        0.99          1.270        0.000
  YS02001605           JUNCTION        0.93          1.180        0.000
  YS02001607           JUNCTION        0.49          0.680        0.000
  YS02001610           JUNCTION        0.51          0.680        0.000
  YS02001613           JUNCTION        0.48          0.700        0.000
  YS02001616           JUNCTION        0.44          0.610        0.000
  YS02001619           JUNCTION        0.43          0.610        0.000
  YS02001622           JUNCTION        0.43          0.620        0.000
  YS02001625           JUNCTION        0.59          0.780        0.000
  YS02001629           JUNCTION        0.39          0.470        0.000
  YS02001633           JUNCTION        0.61          1.034        0.026
  YS02001641           JUNCTION        0.54          0.963        0.137
  YS02001644           JUNCTION        0.51          0.920        0.000
  YS02001647           JUNCTION        0.34          0.742        0.158
  YS02001649           JUNCTION        0.43          0.929        0.121
  YS02001652           JUNCTION        0.28          0.785        0.345
  YS02001655           JUNCTION        0.17          0.783        0.417
  YS02001658           JUNCTION        0.05          0.746        0.554
  YS02001748           JUNCTION        0.01          0.612        0.578
  YS02001751           JUNCTION        0.10          0.659        0.541
  YS02001754           JUNCTION        0.21          0.714        0.436
  YS02001757           JUNCTION        0.48          0.997        0.213
  YS02001759           JUNCTION        0.39          0.942        0.268
  YS02001762           JUNCTION        0.37          0.949        0.201
  YS02001765           JUNCTION        0.33          0.925        0.175
  YS02001767           JUNCTION        0.31          0.891        0.139
  YS02001770           JUNCTION        0.29          0.876        0.044
  YS02001774           JUNCTION        0.35          0.970        0.080
  YS02001779           JUNCTION        0.20          0.680        0.000
  YS02001783           JUNCTION        0.30          0.442        1.158
  YS02001784           JUNCTION        0.28          0.315        1.175
  YS02001786           JUNCTION        0.19          0.073        1.357
  YS02001882           JUNCTION        0.26          0.686        0.144
  YS02001884           JUNCTION        0.27          0.726        0.144
  YS02001887           JUNCTION        0.29          0.915        0.035
  YS02001890           JUNCTION        0.31          0.760        0.000
  YS02001895           JUNCTION        0.25          0.750        0.000
  YS02001898           JUNCTION        0.24          0.740        0.000
  YS02001901           JUNCTION        0.28          0.870        0.000
  YS02001904           JUNCTION        0.27          0.850        0.000
  YS02001907           JUNCTION        0.49          0.950        0.000
  YS02001910           JUNCTION        0.33          0.968        0.132
  YS02001915           JUNCTION        0.25          0.914        0.086
  YS02001918           JUNCTION        0.18          0.810        0.000
  YS02001920           JUNCTION        0.19          1.140        0.000
  YS02001923           JUNCTION        0.01          0.820        0.000
  YS02001926           JUNCTION        0.01          0.900        0.000
  YS02001929           JUNCTION        0.01          0.780        0.000
  YS02006553           JUNCTION        0.51          0.968        0.222
  YS02006556           JUNCTION        0.41          0.887        0.463
  YS02006558           JUNCTION        0.40          0.873        0.527
  YS02006561           JUNCTION        0.15          0.143        1.007
  YS02163301           JUNCTION        0.59          0.942        0.088
  YS02163601           JUNCTION        0.64          1.069        0.011
  YS02164001           JUNCTION        0.55          0.971        0.129
  
  
  *********************
  Node Flooding Summary
  *********************
  
  Flooding refers to all water that overflows a node, whether it ponds or not.
  --------------------------------------------------------------------------
                                                             Total   Maximum
                                 Maximum   Time of Max       Flood    Ponded
                        Hours       Rate    Occurrence      Volume     Depth
  Node                 Flooded       LPS   days hr:min    10^6 ltr    Meters
  --------------------------------------------------------------------------
  WS02006242              0.01     29.01      0  02:07       0.000     0.000
  WS02006243              0.01     63.05      0  02:06       0.000     0.000
  WS02006248              0.01      0.58      0  02:19       0.000     0.000
  WS02006249              0.88    160.21      0  02:08       0.222     0.000
  WS02006252              0.01    299.75      0  03:25       0.000     0.000
  WS02006256              1.25    293.19      0  00:00       0.400     0.000
  YS02001580              0.01     94.89      0  02:08       0.000     0.000
  YS02001586              0.23    126.75      0  02:15       0.061     0.000
  YS02001590              0.01     10.83      0  02:08       0.000     0.000
  YS02001600              0.01      1.57      0  02:08       0.000     0.000
  YS02001601              0.39    693.02      0  02:14       0.547     0.000
  YS02001602              0.30     61.98      0  02:16       0.058     0.000
  YS02001605              0.01      0.19      0  02:28       0.000     0.000
  YS02001607              0.01      0.75      0  02:28       0.000     0.000
  YS02001610              0.24    267.36      0  02:15       0.149     0.000
  YS02001613              0.01      1.00      0  02:28       0.000     0.000
  YS02001616              0.01      1.28      0  02:28       0.000     0.000
  YS02001619              0.01      1.48      0  02:28       0.000     0.000
  YS02001622              0.01      0.71      0  02:28       0.000     0.000
  YS02001625              0.22    842.54      0  02:15       0.321     0.000
  YS02001629              0.04     60.38      0  02:13       0.005     0.000
  YS02001644              0.03    181.32      0  02:14       0.013     0.000
  YS02001779              0.01    372.42      0  02:11       0.003     0.000
  YS02001890              0.02     63.68      0  02:11       0.001     0.000
  YS02001895              0.01     10.93      0  02:11       0.000     0.000
  YS02001898              0.01     32.14      0  02:11       0.000     0.000
  YS02001901              0.01     16.74      0  02:11       0.000     0.000
  YS02001904              0.01     13.02      0  02:11       0.000     0.000
  YS02001907              0.13    924.61      0  02:13       0.201     0.000
  YS02001918              0.01    161.60      0  02:13       0.002     0.000
  YS02001920              0.01     28.16      0  02:12       0.000     0.000
  YS02001923              0.01    107.03      0  02:12       0.000     0.000
  YS02001926              0.01    147.28      0  02:13       0.001     0.000
  YS02001929              0.01    148.87      0  02:12       0.001     0.000
  
  
  **********************
  Storage Volume Summary
  **********************
  
  ------------------------------------------------------------------------------------------------
                         Average    Avg   Evap  Exfil     Maximum    Max    Time of Max    Maximum
                          Volume   Pcnt   Pcnt   Pcnt      Volume   Pcnt     Occurrence    Outflow
  Storage Unit           1000 m³   Full   Loss   Loss     1000 m³   Full    days hr:min        LPS
  ------------------------------------------------------------------------------------------------
  CC-storage               2.228   34.8    0.0    0.0       4.271   66.6       0  02:30    1783.53
  JK-storage               0.152   52.1    0.0    0.0       0.212   72.7       0  02:15    2300.00
  XR-storage               0.939   65.2    0.0    0.0       1.111   77.2       0  08:00     380.00
  
  
  ***********************
  Outfall Loading Summary
  ***********************
  
  -----------------------------------------------------------
                         Flow       Avg       Max       Total
                         Freq      Flow      Flow      Volume
  Outfall Node           Pcnt       LPS       LPS    10^6 ltr
  -----------------------------------------------------------
  CC-1                  27.67    683.00    683.00       3.249
  CC-2                  25.62    683.00    683.00       3.032
  JK-1                  12.35   1000.00   1000.00       1.481
  JK-2                   0.25   1000.00   1000.00       0.048
  WSC                   99.93    366.86    752.71       8.894
  -----------------------------------------------------------
  System                33.16   3732.86   3366.23      16.704
  
  
  ********************
  Link Flow Summary
  ********************
  
  -----------------------------------------------------------------------------
                                 Maximum  Time of Max   Maximum    Max/    Max/
                                  |Flow|   Occurrence   |Veloc|    Full    Full
  Link                 Type          LPS  days hr:min     m/sec    Flow   Depth
  -----------------------------------------------------------------------------
  1                    CONDUIT    752.71     0  02:38      3.08    0.26    0.35
  WS02001211WS02001212 CONDUIT    202.71     0  03:04      0.54    0.15    0.51
  WS02001212WS02001213 CONDUIT    204.57     0  03:36      1.04    0.32    0.36
  WS02001213WS02003059 CONDUIT    209.55     0  03:37      0.47    0.35    0.67
  WS02003059WS02003060 CONDUIT    216.77     0  03:38      0.67    0.14    0.58
  WS02003060WS02003069 CONDUIT    751.00     0  02:45      1.77    0.29    0.40
  WS02003066WSF200     CONDUIT    536.97     0  02:44      2.74    0.09    0.23
  WS02003067WS02003066 CONDUIT    536.91     0  02:44      1.21    0.17    0.42
  WS02003069WS02003072 CONDUIT    751.02     0  02:45      1.51    0.36    0.45
  WS02003072WS02003073 CONDUIT    750.92     0  02:39      1.60    1.62    0.43
  WS02004138WS02004139 CONDUIT    190.84     0  00:29      2.17    0.04    0.33
  WS02004139WS02001211 CONDUIT    193.17     0  03:04      0.54    0.24    0.47
  WS02004401WS02004402 CONDUIT    539.62     0  02:41      0.97    0.65    0.86
  WS02004402WS02004403 CONDUIT    539.31     0  02:41      0.97    0.77    0.88
  WS02004403WS02004404 CONDUIT    538.85     0  02:42      0.92    0.39    0.93
  WS02004404WS02004405 CONDUIT    538.91     0  02:42      1.08    5.28    0.96
  WS02004405WS02004406 CONDUIT    539.11     0  02:42      0.99    1.06    0.96
  WS02004406WS02004407 CONDUIT    538.29     0  02:42      1.04    0.24    0.63
  WS02004407WS02004409 CONDUIT    537.82     0  02:42      1.55    0.19    0.48
  WS02004409WS02004410 CONDUIT    537.51     0  02:43      1.01    0.70    0.67
  WS02004410WS02004411 CONDUIT    537.26     0  02:43      0.94    0.73    0.69
  WS02004411WS02004412 CONDUIT    537.11     0  02:43      0.92    0.76    0.69
  WS02004412WS02004413 CONDUIT    537.21     0  02:43      0.82    0.36    0.78
  WS02004413WS02003067 CONDUIT    536.86     0  02:44      1.11    0.23    0.59
  WS02006109WS02006110 CONDUIT    550.52     0  03:16      1.10    1.06    1.00
  WS02006110WS02006113 CONDUIT    555.18     0  03:16      1.33    0.51    0.78
  WS02006111WS02006112 CONDUIT    543.34     0  03:17      1.82    0.26    0.67
  WS02006112WS02006115 CONDUIT    547.40     0  02:41      0.80    0.32    0.87
  WS02006113WS02006111 CONDUIT    560.60     0  02:47      2.46    0.67    0.46
  WS02006115WS02006116 CONDUIT    542.02     0  02:41      0.97    0.70    0.76
  WS02006116WS02004401 CONDUIT    540.49     0  02:41      0.98    0.74    0.84
  WS02006228WS02006109 CONDUIT    548.66     0  03:16      1.09    2.40    1.00
  WS02006229WS02006228 CONDUIT    547.22     0  03:16      1.15    1.81    1.00
  WS02006230WS02006229 CONDUIT    545.89     0  03:16      1.42   12.15    1.00
  WS02006231WS02006230 CONDUIT    569.37     0  03:16      1.53    8.64    1.00
  WS02006232WS02006231 CONDUIT    568.40     0  03:15      1.48    1.19    1.00
  WS02006234WS02006232 CONDUIT    567.22     0  03:15      1.47    1.15    1.00
  WS02006235WS02006234 CONDUIT    562.23     0  03:15      1.46    5.93    1.00
  WS02006238WS02006235 CONDUIT    425.63     0  03:15      1.57    0.95    1.00
  WS02006239WS02006238 CONDUIT    419.07     0  02:56      1.11    1.34    1.00
  WS02006240WS02006239 CONDUIT    419.61     0  02:56      1.24    1.32    1.00
  WS02006242WS02006240 CONDUIT    417.53     0  02:56      1.12    1.66    1.00
  WS02006243WS02006242 CONDUIT    421.97     0  03:15      1.39    0.90    1.00
  WS02006245WS02006243 CONDUIT    422.31     0  03:15      1.45    1.25    1.00
  WS02006247WS02006245 CONDUIT    421.19     0  03:15      1.44    3.34    1.00
  WS02006248WS02006247 CONDUIT    421.67     0  03:15      1.45    0.92    1.00
  WS02006249WS02006248 CONDUIT    419.93     0  03:15      1.37    2.30    1.00
  WS02006251WS02006249 CONDUIT    476.36     0  02:07      1.99    1.37    1.00
  WS02006252WS02006251 CONDUIT    426.37     0  02:07     25.11    1.57    1.00
  WS02006256WS02006235 CONDUIT    289.22     0  01:55      4.23    3.06    1.00
  WSF200WS02003060     CONDUIT    537.30     0  02:44      1.76    0.12    0.32
  YS02001580YS02001583 CONDUIT    115.66     0  02:08      0.66    0.45    1.00
  YS02001583YS02001586 CONDUIT    163.41     0  02:08      0.67    0.25    1.00
  YS02001586YS02001590 CONDUIT    318.05     0  02:21      1.27    0.56    1.00
  YS02001590YS02001593 CONDUIT    317.90     0  02:21      1.12    2.00    1.00
  YS02001593YS02001596 CONDUIT    317.94     0  02:16      1.73    0.50    1.00
  YS02001596YS02001600 CONDUIT    317.92     0  02:19      1.22    0.62    1.00
  YS02001600YS02001601 CONDUIT    317.96     0  02:16      1.12    0.55    1.00
  YS02001601YS02001602 CONDUIT    514.20     0  02:08      1.82    1.86    1.00
  YS02001602YS02001605 CONDUIT    514.06     0  02:08      1.82   10.88    1.00
  YS02001605YS02001607 CONDUIT    513.79     0  02:08      1.82    2.82    1.00
  YS02001607YS02001610 CONDUIT    511.50     0  02:07      0.65    0.49    1.00
  YS02001610YS02001613 CONDUIT    511.66     0  02:08      0.65    0.59    1.00
  YS02001613YS02001616 CONDUIT    512.88     0  02:07      0.66    0.44    1.00
  YS02001616YS02001619 CONDUIT    499.88     0  02:08      0.66    0.87    1.00
  YS02001619YS02001622 CONDUIT    926.98     0  02:10      1.18    1.37    1.00
  YS02001622YS02001625 CONDUIT    926.69     0  02:10      1.18    0.49    1.00
  YS02001625YS02001629 CONDUIT    926.71     0  02:10      1.18    0.44    1.00
  YS02001629YS02163301 CONDUIT    927.42     0  02:10      1.18    1.14    1.00
  YS02001633YS02163601 CONDUIT   1366.58     0  02:10      1.74    1.43    1.00
  YS02001641YS02001644 CONDUIT   1364.49     0  02:10      1.74    4.41    1.00
  YS02001644YS02001647 CONDUIT   1746.77     0  02:10      2.24    1.03    1.00
  YS02001647YS02001649 CONDUIT   1744.09     0  02:10      2.32    0.92    1.00
  YS02001649YS02001757 CONDUIT   1905.39     0  02:10      2.44    1.16    1.00
  YS02001652YS02001649 CONDUIT    649.98     0  02:14      0.83    0.32    1.00
  YS02001655YS02001652 CONDUIT    646.93     0  02:14      1.28    0.31    1.00
  YS02001658YS02001655 CONDUIT    644.78     0  02:14      1.91    0.27    1.00
  YS02001661YS02001658 CONDUIT    652.44     0  02:12      2.30    0.26    0.99
  YS02001664YS02001661 CONDUIT    743.60     0  02:13      2.28    0.23    0.70
  YS02001745YS02001748 CONDUIT    558.66     0  02:13      2.10    0.22    0.84
  YS02001748YS02001751 CONDUIT    379.32     0  02:13      1.65    0.19    1.00
  YS02001751YS02001754 CONDUIT    380.80     0  02:13      1.44    0.18    1.00
  YS02001754YS02001757 CONDUIT    380.05     0  02:13      0.48    0.15    1.00
  YS02001757CaochengTiaoxuchi CONDUIT   3063.84     0  02:14      3.90    1.33    1.00
  YS02001759YS02001757 CONDUIT   1106.59     0  02:12      1.41    0.79    1.00
  YS02001762YS02001759 CONDUIT    654.15     0  02:12      0.83    0.75    1.00
  YS02001765YS02001762 CONDUIT    648.38     0  02:12      0.83    0.61    1.00
  YS02001767YS02001765 CONDUIT    642.76     0  02:13      0.82    0.81    1.00
  YS02001770YS02001767 CONDUIT    640.76     0  02:13      0.82    2.54    1.00
  YS02001774YS02001770 CONDUIT    410.06     0  02:11      0.52    0.26    1.00
  YS02001779YS02001774 CONDUIT    415.45     0  02:11      0.54    0.21    1.00
  YS02001783YS02001784 CONDUIT   1150.64     0  02:13      2.29    1.59    1.00
  YS02001784YS02001785 CONDUIT   1151.30     0  02:13      2.29    2.68    1.00
  YS02001786YS02001788 CONDUIT   1152.22     0  02:13      2.47    2.22    0.89
  YS02001788YS02001790 CONDUIT   1167.32     0  02:12      2.71    0.86    0.83
  YS02001790YS02001791 CONDUIT   1272.85     0  02:16      3.42    1.38    0.70
  YS02001791YS02001793 CONDUIT   1226.08     0  02:18      6.49    0.53    0.43
  YS02001793JiankangQianchi CONDUIT   1196.02     0  02:16      2.36    0.09    0.64
  YS02001882YS02001884 CONDUIT     62.42     0  02:10      0.11    0.07    1.00
  YS02001884YS02001887 CONDUIT     69.18     0  02:10      0.09    0.09    1.00
  YS02001887YS02001890 CONDUIT    491.62     0  02:13      0.63    0.84    1.00
  YS02001890YS02001895 CONDUIT    488.02     0  02:13      0.62    0.23    1.00
  YS02001895YS02001898 CONDUIT    488.47     0  02:13      0.62    0.85    1.00
  YS02001898YS02001901 CONDUIT    491.11     0  02:11      0.63    0.32    1.00
  YS02001901YS02001904 CONDUIT    494.93     0  02:11      0.63    0.77    1.00
  YS02001904YS02001907 CONDUIT    498.51     0  02:11      0.63    0.17    1.00
  YS02001907YS02006553 CONDUIT    795.47     0  02:22      0.88    0.94    1.00
  YS02001910YS02001907 CONDUIT    975.56     0  02:13      1.24    0.55    1.00
  YS02001915YS02001910 CONDUIT    975.73     0  02:13      1.24    0.48    1.00
  YS02001918YS02001915 CONDUIT    459.46     0  02:13      0.58    0.25    1.00
  YS02001920YS02001918 CONDUIT    457.86     0  02:13      0.65    0.44    1.00
  YS02001923YS02001920 CONDUIT    454.65     0  02:13      0.71    0.20    1.00
  YS02001926YS02001923 CONDUIT    416.39     0  02:13      0.98    0.59    1.00
  YS02001929YS02001926 CONDUIT    413.29     0  02:13      1.16    0.20    1.00
  YS02006553YS02006556 CONDUIT    796.08     0  02:22      1.01    0.68    1.00
  YS02006556YS02006558 CONDUIT    797.20     0  02:22      1.02    0.63    1.00
  YS02006558YS02006561 CONDUIT   1162.21     0  02:12      4.11    2.57    1.00
  YS02006561YS02001783 CONDUIT   1150.39     0  02:13      2.29    0.60    1.00
  YS02163301YS02001633 CONDUIT    928.28     0  02:10      1.18    0.87    1.00
  YS02163601YS02164001 CONDUIT   1366.25     0  02:10      1.74    1.21    1.00
  YS02164001YS02001641 CONDUIT   1365.13     0  02:10      1.74    1.86    1.00
  CC-R1                PUMP       683.00     0  00:00              1.00
  CC-R2                PUMP       683.00     0  00:00              1.00
  CC-S1                PUMP       200.00     0  00:00              1.00
  CC-S2                PUMP       200.00     0  00:00              1.00
  JK-R1                PUMP      1000.00     0  00:00              1.00
  JK-R2                PUMP      1000.00     0  00:00              1.00
  JK-S                 PUMP       300.00     0  00:00              1.00
  XR-1                 PUMP        95.00     0  00:00              1.00
  XR-2                 PUMP        95.00     0  00:00              1.00
  XR-3                 PUMP        95.00     0  00:00              1.00
  XR-4                 PUMP        95.00     0  00:00              1.00
  
  
  ***************************
  Flow Classification Summary
  ***************************
  
  -------------------------------------------------------------------------------------
                      Adjusted    ---------- Fraction of Time in Flow Class ---------- 
                       /Actual         Up    Down  Sub   Sup   Up    Down  Norm  Inlet 
  Conduit               Length    Dry  Dry   Dry   Crit  Crit  Crit  Crit  Ltd   Ctrl  
  -------------------------------------------------------------------------------------
  1                       1.00   0.00  0.00  0.00  0.00  1.00  0.00  0.00  0.18  0.00
  WS02001211WS02001212    1.00   0.00  0.02  0.00  0.98  0.00  0.00  0.00  0.00  0.00
  WS02001212WS02001213    1.00   0.02  0.00  0.00  0.18  0.00  0.79  0.00  0.00  0.00
  WS02001213WS02003059    1.00   0.00  0.01  0.00  0.99  0.00  0.00  0.00  0.00  0.00
  WS02003059WS02003060    1.00   0.00  0.00  0.00  1.00  0.00  0.00  0.00  0.03  0.00
  WS02003060WS02003069    1.00   0.00  0.00  0.00  0.98  0.02  0.00  0.00  0.69  0.00
  WS02003066WSF200        1.00   0.13  0.00  0.00  0.00  0.87  0.00  0.00  0.75  0.00
  WS02003067WS02003066    1.00   0.10  0.02  0.00  0.88  0.00  0.00  0.00  0.00  0.00
  WS02003069WS02003072    1.00   0.00  0.00  0.00  1.00  0.00  0.00  0.00  0.79  0.00
  WS02003072WS02003073    1.00   0.00  0.00  0.00  0.00  0.00  0.00  1.00  0.00  0.00
  WS02004138WS02004139    1.00   0.00  0.00  0.00  0.97  0.01  0.00  0.02  0.98  0.00
  WS02004139WS02001211    1.00   0.00  0.00  0.00  0.99  0.00  0.00  0.00  0.00  0.00
  WS02004401WS02004402    1.00   0.02  0.00  0.00  0.98  0.00  0.00  0.00  0.00  0.00
  WS02004402WS02004403    1.00   0.02  0.00  0.00  0.97  0.00  0.00  0.00  0.00  0.00
  WS02004403WS02004404    1.00   0.00  0.03  0.00  0.97  0.00  0.00  0.00  0.00  0.00
  WS02004404WS02004405    1.00   0.00  0.00  0.00  1.00  0.00  0.00  0.00  0.01  0.00
  WS02004405WS02004406    1.00   0.00  0.00  0.00  1.00  0.00  0.00  0.00  0.00  0.00
  WS02004406WS02004407    1.00   0.00  0.05  0.00  0.95  0.00  0.00  0.00  0.00  0.00
  WS02004407WS02004409    1.00   0.05  0.00  0.00  0.94  0.01  0.00  0.00  0.94  0.00
  WS02004409WS02004410    1.00   0.05  0.00  0.00  0.95  0.00  0.00  0.00  0.03  0.00
  WS02004410WS02004411    1.00   0.05  0.00  0.00  0.95  0.00  0.00  0.00  0.01  0.00
  WS02004411WS02004412    1.00   0.05  0.00  0.00  0.95  0.00  0.00  0.00  0.00  0.00
  WS02004412WS02004413    1.00   0.05  0.00  0.00  0.94  0.00  0.00  0.00  0.01  0.00
  WS02004413WS02003067    1.00   0.06  0.04  0.00  0.00  0.00  0.90  0.00  0.00  0.00
  WS02006109WS02006110    1.00   0.00  0.01  0.00  0.98  0.00  0.01  0.00  0.00  0.00
  WS02006110WS02006113    1.00   0.01  0.01  0.00  0.98  0.00  0.00  0.00  0.00  0.00
  WS02006111WS02006112    1.00   0.02  0.00  0.00  0.98  0.00  0.00  0.00  0.98  0.00
  WS02006112WS02006115    1.00   0.02  0.00  0.00  0.97  0.00  0.00  0.00  0.00  0.00
  WS02006113WS02006111    1.00   0.02  0.00  0.00  0.00  0.98  0.00  0.00  0.08  0.00
  WS02006115WS02006116    1.00   0.02  0.00  0.00  0.97  0.00  0.00  0.01  0.00  0.00
  WS02006116WS02004401    1.00   0.02  0.00  0.00  0.98  0.00  0.00  0.00  0.00  0.00
  WS02006228WS02006109    1.00   0.00  0.00  0.00  1.00  0.00  0.00  0.00  0.00  0.00
  WS02006229WS02006228    1.00   0.00  0.00  0.00  0.99  0.00  0.00  0.01  0.00  0.00
  WS02006230WS02006229    1.00   0.00  0.00  0.00  0.99  0.00  0.00  0.01  0.04  0.00
  WS02006231WS02006230    1.00   0.00  0.00  0.00  0.17  0.00  0.82  0.00  0.00  0.00
  WS02006232WS02006231    1.00   0.00  0.00  0.00  0.99  0.00  0.01  0.00  0.00  0.00
  WS02006234WS02006232    1.00   0.00  0.00  0.00  1.00  0.00  0.00  0.00  0.37  0.00
  WS02006235WS02006234    1.00   0.00  0.00  0.00  0.57  0.00  0.43  0.00  0.00  0.00
  WS02006238WS02006235    1.00   0.00  0.00  0.00  1.00  0.00  0.00  0.00  0.00  0.00
  WS02006239WS02006238    1.00   0.00  0.00  0.00  1.00  0.00  0.00  0.00  0.52  0.00
  WS02006240WS02006239    1.00   0.00  0.00  0.00  0.41  0.00  0.00  0.59  0.03  0.00
  WS02006242WS02006240    1.00   0.00  0.00  0.00  1.00  0.00  0.00  0.00  0.00  0.00
  WS02006243WS02006242    1.00   0.00  0.00  0.00  0.99  0.00  0.00  0.01  0.75  0.00
  WS02006245WS02006243    1.00   0.00  0.00  0.00  0.43  0.00  0.00  0.57  0.02  0.00
  WS02006247WS02006245    1.00   0.00  0.00  0.00  0.97  0.00  0.00  0.03  0.00  0.00
  WS02006248WS02006247    1.00   0.00  0.00  0.00  0.99  0.00  0.00  0.01  0.24  0.00
  WS02006249WS02006248    1.00   0.00  0.00  0.00  0.29  0.00  0.71  0.00  0.00  0.00
  WS02006251WS02006249    1.00   0.00  0.00  0.00  0.99  0.01  0.00  0.00  0.75  0.00
  WS02006252WS02006251    1.00   0.00  0.74  0.00  0.11  0.00  0.15  0.00  0.00  0.00
  WS02006256WS02006235    1.00   0.00  0.00  0.00  0.99  0.01  0.00  0.00  0.00  0.00
  WSF200WS02003060        1.00   0.00  0.13  0.00  0.71  0.16  0.00  0.00  0.69  0.00
  YS02001580YS02001583    1.00   0.26  0.58  0.00  0.16  0.00  0.00  0.00  0.67  0.00
  YS02001583YS02001586    1.00   0.49  0.30  0.00  0.21  0.00  0.00  0.00  0.67  0.00
  YS02001586YS02001590    1.00   0.13  0.00  0.00  0.39  0.04  0.00  0.45  0.35  0.00
  YS02001590YS02001593    1.00   0.13  0.01  0.00  0.08  0.00  0.79  0.00  0.00  0.00
  YS02001593YS02001596    1.00   0.14  0.00  0.00  0.09  0.01  0.00  0.76  0.02  0.00
  YS02001596YS02001600    1.00   0.14  0.00  0.00  0.17  0.01  0.00  0.68  0.06  0.00
  YS02001600YS02001601    1.00   0.13  0.01  0.00  0.86  0.00  0.00  0.00  0.63  0.00
  YS02001601YS02001602    1.00   0.13  0.01  0.00  0.86  0.00  0.00  0.00  0.00  0.00
  YS02001602YS02001605    1.00   0.14  0.00  0.00  0.86  0.00  0.00  0.00  0.00  0.00
  YS02001605YS02001607    1.00   0.14  0.00  0.00  0.86  0.00  0.00  0.00  0.00  0.00
  YS02001607YS02001610    1.00   0.13  0.01  0.00  0.86  0.00  0.00  0.00  0.02  0.00
  YS02001610YS02001613    1.00   0.13  0.00  0.00  0.87  0.00  0.00  0.00  0.01  0.00
  YS02001613YS02001616    1.00   0.13  0.00  0.00  0.87  0.00  0.00  0.00  0.01  0.00
  YS02001616YS02001619    1.00   0.13  0.00  0.00  0.87  0.00  0.00  0.00  0.00  0.00
  YS02001619YS02001622    1.00   0.13  0.00  0.00  0.87  0.00  0.00  0.00  0.35  0.00
  YS02001622YS02001625    1.00   0.13  0.00  0.00  0.87  0.00  0.00  0.00  0.05  0.00
  YS02001625YS02001629    1.00   0.13  0.05  0.00  0.12  0.00  0.70  0.00  0.00  0.00
  YS02001629YS02163301    1.00   0.16  0.01  0.00  0.83  0.00  0.00  0.00  0.00  0.00
  YS02001633YS02163601    1.00   0.00  0.01  0.00  0.99  0.00  0.00  0.00  0.15  0.00
  YS02001641YS02001644    1.00   0.00  0.01  0.00  0.99  0.00  0.00  0.00  0.00  0.00
  YS02001644YS02001647    1.00   0.00  0.18  0.00  0.82  0.00  0.00  0.00  0.00  0.00
  YS02001647YS02001649    1.00   0.00  0.18  0.00  0.53  0.29  0.00  0.00  0.59  0.00
  YS02001649YS02001757    1.00   0.00  0.00  0.00  0.68  0.32  0.00  0.00  0.55  0.00
  YS02001652YS02001649    1.00   0.00  0.00  0.00  0.96  0.04  0.00  0.00  0.79  0.00
  YS02001655YS02001652    1.00   0.00  0.00  0.00  0.13  0.02  0.00  0.85  0.05  0.00
  YS02001658YS02001655    1.00   0.00  0.14  0.00  0.63  0.22  0.00  0.00  0.74  0.00
  YS02001661YS02001658    1.00   0.14  0.00  0.00  0.50  0.36  0.00  0.00  0.75  0.00
  YS02001664YS02001661    1.00   0.13  0.00  0.00  0.78  0.10  0.00  0.00  0.86  0.00
  YS02001745YS02001748    1.00   0.00  0.00  0.00  0.05  0.01  0.00  0.94  0.04  0.00
  YS02001748YS02001751    1.00   0.00  0.00  0.00  0.80  0.20  0.00  0.00  0.79  0.00
  YS02001751YS02001754    1.00   0.00  0.00  0.00  0.11  0.00  0.00  0.89  0.02  0.00
  YS02001754YS02001757    1.00   0.00  0.00  0.00  1.00  0.00  0.00  0.00  0.88  0.00
  YS02001757CaochengTiaoxuchi    1.00   0.00  0.00  0.00  1.00  0.00  0.00  0.00  0.88  0.00
  YS02001759YS02001757    1.00   0.00  0.00  0.00  1.00  0.00  0.00  0.00  0.64  0.00
  YS02001762YS02001759    1.00   0.00  0.00  0.00  1.00  0.00  0.00  0.00  0.05  0.00
  YS02001765YS02001762    1.00   0.00  0.00  0.00  1.00  0.00  0.00  0.00  0.77  0.00
  YS02001767YS02001765    1.00   0.00  0.00  0.00  1.00  0.00  0.00  0.00  0.00  0.00
  YS02001770YS02001767    1.00   0.00  0.00  0.00  1.00  0.00  0.00  0.00  0.00  0.00
  YS02001774YS02001770    1.00   0.00  0.13  0.00  0.60  0.00  0.27  0.00  0.03  0.00
  YS02001779YS02001774    1.00   0.00  0.00  0.00  1.00  0.00  0.00  0.00  0.81  0.00
  YS02001783YS02001784    1.00   0.00  0.19  0.00  0.81  0.00  0.00  0.00  0.58  0.00
  YS02001784YS02001785    1.00   0.00  0.00  0.00  1.00  0.00  0.00  0.00  0.17  0.00
  YS02001786YS02001788    1.00   0.00  0.00  0.00  0.80  0.20  0.00  0.00  0.00  0.00
  YS02001788YS02001790    1.00   0.00  0.00  0.00  0.21  0.79  0.00  0.00  0.84  0.00
  YS02001790YS02001791    1.00   0.00  0.00  0.00  0.01  0.99  0.00  0.00  0.16  0.00
  YS02001791YS02001793    1.00   0.00  0.00  0.00  0.00  1.00  0.00  0.00  0.00  0.00
  YS02001793JiankangQianchi    1.00   0.00  0.00  0.00  0.99  0.00  0.00  0.00  0.97  0.00
  YS02001882YS02001884    1.00   0.15  0.01  0.00  0.84  0.00  0.00  0.00  0.00  0.00
  YS02001884YS02001887    1.00   0.06  0.05  0.00  0.89  0.00  0.00  0.00  0.00  0.00
  YS02001887YS02001890    1.00   0.00  0.00  0.00  0.97  0.00  0.03  0.00  0.00  0.00
  YS02001890YS02001895    1.00   0.00  0.17  0.00  0.83  0.00  0.00  0.00  0.00  0.00
  YS02001895YS02001898    1.00   0.17  0.00  0.00  0.81  0.00  0.02  0.00  0.00  0.00
  YS02001898YS02001901    1.00   0.17  0.00  0.00  0.83  0.00  0.00  0.00  0.01  0.00
  YS02001901YS02001904    1.00   0.17  0.00  0.00  0.83  0.00  0.00  0.00  0.00  0.00
  YS02001904YS02001907    1.00   0.00  0.17  0.00  0.83  0.00  0.00  0.00  0.00  0.00
  YS02001907YS02006553    1.00   0.00  0.02  0.00  0.98  0.00  0.00  0.00  0.00  0.00
  YS02001910YS02001907    1.00   0.00  0.00  0.00  0.97  0.00  0.00  0.03  0.12  0.00
  YS02001915YS02001910    1.00   0.00  0.00  0.00  0.97  0.03  0.00  0.00  0.16  0.00
  YS02001918YS02001915    1.00   0.00  0.01  0.00  0.98  0.02  0.00  0.00  0.79  0.00
  YS02001920YS02001918    1.00   0.00  0.01  0.00  0.99  0.00  0.00  0.00  0.00  0.00
  YS02001923YS02001920    1.00   0.00  0.00  0.00  1.00  0.00  0.00  0.00  0.95  0.00
  YS02001926YS02001923    1.00   0.00  0.07  0.00  0.03  0.00  0.89  0.00  0.00  0.00
  YS02001929YS02001926    1.00   0.00  0.13  0.00  0.87  0.00  0.00  0.00  0.85  0.00
  YS02006553YS02006556    1.00   0.01  0.00  0.00  0.99  0.00  0.00  0.00  0.03  0.00
  YS02006556YS02006558    1.00   0.00  0.00  0.00  1.00  0.00  0.00  0.00  0.00  0.00
  YS02006558YS02006561    1.00   0.19  0.00  0.00  0.03  0.79  0.00  0.00  0.18  0.00
  YS02006561YS02001783    1.00   0.19  0.00  0.00  0.06  0.76  0.00  0.00  0.72  0.00
  YS02163301YS02001633    1.00   0.00  0.16  0.00  0.84  0.00  0.00  0.00  0.00  0.00
  YS02163601YS02164001    1.00   0.00  0.08  0.00  0.92  0.00  0.00  0.00  0.00  0.00
  YS02164001YS02001641    1.00   0.01  0.07  0.00  0.92  0.00  0.00  0.00  0.06  0.00
  
  
  *************************
  Conduit Surcharge Summary
  *************************
  
  ----------------------------------------------------------------------------
                                                           Hours        Hours 
                         --------- Hours Full --------   Above Full   Capacity
  Conduit                Both Ends  Upstream  Dnstream   Normal Flow   Limited
  ----------------------------------------------------------------------------
  WS02003072WS02003073        0.01      0.01      0.01      1.44         0.01
  WS02004404WS02004405        0.01      0.01      0.01      1.75         0.01
  WS02004405WS02004406        0.01      0.01      0.01      0.77         0.01
  WS02006109WS02006110        0.85      0.85      1.36      0.86         0.01
  WS02006110WS02006113        0.01      0.01      1.34      0.01         0.01
  WS02006111WS02006112        0.01      0.01      1.40      0.01         0.01
  WS02006112WS02006115        0.01      0.01      0.80      0.01         0.01
  WS02006228WS02006109        1.31      1.35      1.31      1.50         1.31
  WS02006229WS02006228        1.30      1.32      1.30      1.43         1.29
  WS02006230WS02006229        1.39      1.41      1.39      2.48         1.39
  WS02006231WS02006230        0.84      0.84      0.88      2.04         0.01
  WS02006232WS02006231        0.87      0.87      1.37      0.89         0.01
  WS02006234WS02006232        1.27      1.27      1.37      0.88         0.88
  WS02006235WS02006234        0.97      0.98      1.31      1.86         0.01
  WS02006238WS02006235        1.32      1.32      1.36      0.01         0.01
  WS02006239WS02006238        1.31      1.31      1.34      1.31         1.18
  WS02006240WS02006239        1.28      1.29      1.28      1.31         1.12
  WS02006242WS02006240        1.28      1.28      1.30      1.36         0.01
  WS02006243WS02006242        1.28      1.28      1.30      0.01         0.01
  WS02006245WS02006243        1.28      1.28      1.28      0.46         0.52
  WS02006247WS02006245        1.28      1.28      1.28      1.57         1.27
  WS02006248WS02006247        1.27      1.27      1.28      0.01         0.01
  WS02006249WS02006248        1.27      1.27      1.27      1.55         0.01
  WS02006251WS02006249        1.27      1.27      1.27      1.36         1.24
  WS02006252WS02006251        1.43      1.43      1.43      1.43         0.01
  WS02006256WS02006235        1.92      1.94      3.82      1.25         0.01
  YS02001580YS02001583        0.33      0.33      0.37      0.01         0.01
  YS02001583YS02001586        0.34      0.34      0.45      0.01         0.01
  YS02001586YS02001590        0.45      0.45      0.51      0.01         0.01
  YS02001590YS02001593        0.51      0.51      0.53      0.54         0.01
  YS02001593YS02001596        0.53      0.53      0.61      0.01         0.01
  YS02001596YS02001600        0.66      0.66      0.75      0.01         0.01
  YS02001600YS02001601        0.81      0.81      1.13      0.01         0.01
  YS02001601YS02001602        0.99      0.99      1.18      0.76         0.01
  YS02001602YS02001605        0.93      0.93      0.99      2.01         0.01
  YS02001605YS02001607        0.88      0.93      0.88      1.08         0.88
  YS02001607YS02001610        0.49      0.49      0.51      0.01         0.01
  YS02001610YS02001613        0.48      0.48      0.51      0.01         0.01
  YS02001613YS02001616        0.44      0.44      0.48      0.01         0.01
  YS02001616YS02001619        0.43      0.43      0.44      0.01         0.01
  YS02001619YS02001622        0.43      0.43      0.43      0.53         0.41
  YS02001622YS02001625        0.43      0.43      0.59      0.01         0.01
  YS02001625YS02001629        0.39      0.39      0.59      0.01         0.01
  YS02001629YS02163301        0.58      0.58      0.59      0.11         0.13
  YS02001633YS02163601        0.61      0.61      0.64      0.30         0.29
  YS02001641YS02001644        0.51      0.54      0.51      1.23         0.51
  YS02001644YS02001647        0.34      0.34      0.51      0.02         0.01
  YS02001647YS02001649        0.34      0.34      0.43      0.01         0.01
  YS02001649YS02001757        0.42      0.43      0.48      0.06         0.06
  YS02001652YS02001649        0.30      0.30      0.43      0.01         0.01
  YS02001655YS02001652        0.17      0.17      0.28      0.01         0.01
  YS02001658YS02001655        0.05      0.05      0.17      0.01         0.01
  YS02001661YS02001658        0.01      0.01      0.05      0.01         0.01
  YS02001664YS02001661        0.01      0.01      0.01      0.01         0.01
  YS02001745YS02001748        0.01      0.01      0.01      0.01         0.01
  YS02001748YS02001751        0.03      0.03      0.10      0.01         0.01
  YS02001751YS02001754        0.10      0.10      0.21      0.01         0.01
  YS02001754YS02001757        0.24      0.24      0.48      0.01         0.01
  YS02001757CaochengTiaoxuchi        0.48      0.48      1.03      0.18         0.17
  YS02001759YS02001757        0.39      0.39      0.48      0.01         0.01
  YS02001762YS02001759        0.37      0.37      0.39      0.01         0.01
  YS02001765YS02001762        0.33      0.33      0.37      0.01         0.01
  YS02001767YS02001765        0.31      0.31      0.33      0.01         0.02
  YS02001770YS02001767        0.31      0.31      0.31      0.30         0.20
  YS02001774YS02001770        0.29      0.29      0.35      0.01         0.01
  YS02001779YS02001774        0.20      0.20      0.35      0.01         0.01
  YS02001783YS02001784        0.28      0.30      0.28      0.42         0.28
  YS02001784YS02001785        0.19      0.28      0.19      0.62         0.19
  YS02001786YS02001788        0.01      0.19      0.01      0.52         0.01
  YS02001790YS02001791        0.01      0.01      0.01      0.27         0.01
  YS02001793JiankangQianchi        0.01      0.01      7.70      0.01         0.01
  YS02001882YS02001884        0.26      0.26      0.27      0.01         0.01
  YS02001884YS02001887        0.28      0.28      0.29      0.01         0.01
  YS02001887YS02001890        0.31      0.31      0.32      0.01         0.01
  YS02001890YS02001895        0.25      0.25      0.33      0.01         0.01
  YS02001895YS02001898        0.24      0.24      0.25      0.01         0.01
  YS02001898YS02001901        0.25      0.25      0.28      0.01         0.01
  YS02001901YS02001904        0.27      0.27      0.28      0.01         0.01
  YS02001904YS02001907        0.27      0.27      0.51      0.01         0.01
  YS02001907YS02006553        0.63      0.63      0.69      0.01         0.01
  YS02001910YS02001907        0.33      0.33      0.49      0.01         0.01
  YS02001915YS02001910        0.25      0.25      0.33      0.01         0.01
  YS02001918YS02001915        0.18      0.18      0.25      0.01         0.01
  YS02001920YS02001918        0.18      0.18      0.19      0.01         0.01
  YS02001923YS02001920        0.14      0.14      0.19      0.01         0.01
  YS02001926YS02001923        0.01      0.01      0.01      0.01         0.01
  YS02001929YS02001926        0.01      0.01      0.01      0.01         0.01
  YS02006553YS02006556        0.41      0.41      0.51      0.01         0.01
  YS02006556YS02006558        0.45      0.45      0.52      0.01         0.01
  YS02006558YS02006561        0.21      0.40      0.21      0.59         0.21
  YS02006561YS02001783        0.15      0.15      0.30      0.01         0.01
  YS02163301YS02001633        0.59      0.59      0.62      0.01         0.01
  YS02163601YS02164001        0.55      0.55      0.64      0.06         0.01
  YS02164001YS02001641        0.54      0.55      0.54      0.59         0.48
  
  
  ***************
  Pumping Summary
  ***************
  
  ---------------------------------------------------------------------------------------------------------
                                                  Min       Avg       Max     Total     Power    % Time Off
                        Percent   Number of      Flow      Flow      Flow    Volume     Usage    Pump Curve
  Pump                 Utilized   Start-Ups       LPS       LPS       LPS  10^6 ltr     Kw-hr    Low   High
  ---------------------------------------------------------------------------------------------------------
  CC-R1                   16.51          13      0.00    683.00    683.00     3.248     59.09    0.0   29.8
  CC-R2                   15.41          13      0.00    683.00    683.00     3.031     55.08    0.0   31.9
  CC-S1                   20.27          13      0.00    200.00    200.00     1.168      7.01    0.0    0.0
  CC-S2                   17.85          13      0.00    200.00    200.00     1.028      6.17    0.0    0.0
  JK-R1                    5.14           8      0.00   1000.00   1000.00     1.481     17.15    0.0    0.0
  JK-R2                    0.16           1      0.00   1000.00   1000.00     0.047      0.36    0.0    0.0
  JK-S                    15.58           7      0.00    300.00    300.00     1.346     19.51    0.0    0.0
  XR-1                    97.91           2      0.00     95.00     95.00     2.679      9.60    0.0    0.0
  XR-2                    93.94           2      0.00     95.00     95.00     2.570      8.76    0.0    0.0
  XR-3                     0.00           1      0.00     95.00     95.00     0.000      0.00    0.0    0.0
  XR-4                     0.00           1      0.00     95.00     95.00     0.000      0.00    0.0    0.0
  

  Analysis begun on:  Wed Nov  5 16:31:04 2025
  Analysis ended on:  Wed Nov  5 16:31:07 2025
  Total elapsed time: 00:00:03