
  EPA STORM WATER MANAGEMENT MODEL - VERSION 5.2 (Build 5.2.4)
  PYSWMM TOOLKIT API - VERSION v1.0 (2023-11-27)
  ------------------------------------------------------------

  WARNING 04: minimum elevation drop used for Conduit WS02004404WS02004405
  WARNING 03: negative offset ignored for Link YS02001904YS02001907
  
  ****************
  Analysis Options
  ****************
  Flow Units ............... LPS
  Process Models:
    Rainfall/Runoff ........ YES
    RDII ................... NO
    Snowmelt ............... NO
    Groundwater ............ NO
    Flow Routing ........... YES
    Ponding Allowed ........ NO
    Water Quality .......... NO
  Infiltration Method ...... HORTON
  Flow Routing Method ...... DYNWAVE
  Surcharge Method ......... EXTRAN
  Starting Date ............ 08/28/2015 08:00:00
  Ending Date .............. 08/28/2015 16:00:00
  Antecedent Dry Days ...... 8.0
  Report Time Step ......... 00:01:00
  Wet Time Step ............ 00:01:00
  Dry Time Step ............ 00:01:00
  Routing Time Step ........ 30.00 sec
  Variable Time Step ....... YES
  Maximum Trials ........... 8
  Number of Threads ........ 4
  Head Tolerance ........... 0.001500 m
  
  
  **************************        Volume         Depth
  Runoff Quantity Continuity     hectare-m            mm
  **************************     ---------       -------
  Initial LID Storage ......         0.049         1.488
  Total Precipitation ......         1.870        56.385
  Evaporation Loss .........         0.000         0.000
  Infiltration Loss ........         0.080         2.399
  Surface Runoff ...........         1.371        41.329
  Final Storage ............         0.469        14.150
  Continuity Error (%) .....        -0.009
  
  
  **************************        Volume        Volume
  Flow Routing Continuity        hectare-m      10^6 ltr
  **************************     ---------     ---------
  Dry Weather Inflow .......         0.602         6.020
  Wet Weather Inflow .......         1.370        13.703
  Groundwater Inflow .......         0.000         0.000
  RDII Inflow ..............         0.000         0.000
  External Inflow ..........         0.105         1.045
  External Outflow .........         1.946        19.464
  Flooding Loss ............         0.101         1.015
  Evaporation Loss .........         0.000         0.000
  Exfiltration Loss ........         0.000         0.000
  Initial Stored Volume ....         0.303         3.031
  Final Stored Volume ......         0.336         3.361
  Continuity Error (%) .....        -0.168
  
  
  *************************
  Highest Continuity Errors
  *************************
  Node YS02001583 (-7.49%)
  Node YS02001884 (3.08%)
  Node YS02001774 (2.69%)
  
  
  ***************************
  Time-Step Critical Elements
  ***************************
  Link WS02004404WS02004405 (41.83%)
  Link WS02006238WS02006235 (16.54%)
  Link YS02006556YS02006558 (16.21%)
  Link YS02164001YS02001641 (8.65%)
  Link WS02006252WS02006251 (6.68%)
  
  
  ********************************
  Highest Flow Instability Indexes
  ********************************
  Link WS02006113WS02006111 (28)
  Link YS02006558YS02006561 (27)
  Link WS02004404WS02004405 (22)
  Link WS02004403WS02004404 (21)
  Link WS02004405WS02004406 (19)
  
  
  *********************************
  Most Frequent Nonconverging Nodes
  *********************************
  Node CC-1 (8.94%)
  Node CC-2 (8.94%)
  Node JK-1 (8.94%)
  Node JK-2 (8.94%)
  Node WSC (8.94%)
  
  
  *************************
  Routing Time Step Summary
  *************************
  Minimum Time Step           :     0.01 sec
  Average Time Step           :     2.98 sec
  Maximum Time Step           :     7.04 sec
  % of Time in Steady State   :     0.00
  Average Iterations per Step :     2.91
  % of Steps Not Converging   :     8.94
  Time Step Frequencies       :
     30.000 - 13.228 sec      :     0.00 %
     13.228 -  5.833 sec      :    22.13 %
      5.833 -  2.572 sec      :    19.18 %
      2.572 -  1.134 sec      :    34.01 %
      1.134 -  0.500 sec      :    24.68 %
  
  
  ***************************
  Subcatchment Runoff Summary
  ***************************
  
  ------------------------------------------------------------------------------------------------------------------------------
                            Total      Total      Total      Total     Imperv       Perv      Total       Total     Peak  Runoff
                           Precip      Runon       Evap      Infil     Runoff     Runoff     Runoff      Runoff   Runoff   Coeff
  Subcatchment                 mm         mm         mm         mm         mm         mm         mm    10^6 ltr      LPS
  ------------------------------------------------------------------------------------------------------------------------------
  sub60                     56.39       0.00       0.00       1.44      37.36       3.78      41.14        0.54   103.94   0.730
  sub61                     56.39       0.00       0.00       2.22      37.33       5.62      42.95        0.79   151.13   0.762
  sub62                     56.39       0.00       0.00       0.98      39.80       2.57      42.36        1.16   220.39   0.751
  sub63                     56.39       0.00       0.00       4.05      31.97       9.33      41.31        0.94   172.45   0.733
  sub64                     56.39       0.00       0.00       1.95      36.40       4.64      41.05        0.99   183.19   0.728
  sub65                     56.39       0.00       0.00       1.79      39.29       4.24      43.52        1.20   219.93   0.772
  sub66                     56.39       0.00       0.00       4.63      30.91       8.33      39.24        1.83   299.17   0.696
  sub67                     56.39       0.00       0.00       0.97      40.80       2.66      43.47        0.81   155.82   0.771
  sub68                     56.39       0.00       0.00       1.70      36.03       4.31      40.34        1.11   212.03   0.715
  sub69                     56.39       0.00       0.00       1.57      37.90       5.13      43.03        1.59   288.81   0.763
  sub70                     56.39       0.00       0.00       5.07      30.35      10.62      40.98        1.18   185.64   0.727
  sub71                     56.39       0.00       0.00       0.91      36.15       2.32      38.47        1.01   188.13   0.682
  sub72                     56.39       0.00       0.00       0.86      39.04       2.15      41.20        0.57   101.95   0.731
  

  ***********************
  LID Performance Summary
  ***********************

  --------------------------------------------------------------------------------------------------------------------
                                         Total      Evap     Infil   Surface    Drain    Initial     Final  Continuity
                                        Inflow      Loss      Loss   Outflow   Outflow   Storage   Storage       Error
  Subcatchment      LID Control             mm        mm        mm        mm        mm        mm        mm           %
  --------------------------------------------------------------------------------------------------------------------
  sub60             GreenRoof            56.39      0.00      0.00      0.00      0.00      7.05     63.44        0.00
  sub61             GreenRoof            56.39      0.00      0.00      0.00      0.00      7.05     63.44        0.00
  sub62             GreenRoof            56.39      0.00      0.00      0.00      0.00      7.05     63.44        0.00
  sub63             GreenRoof            56.39      0.00      0.00      0.00      0.00      7.05     63.44        0.00
  sub64             GreenRoof            56.39      0.00      0.00      0.00      0.00      7.05     63.44        0.00
  sub65             GreenRoof            56.39      0.00      0.00      0.00      0.00      7.05     63.44        0.00
  sub66             GreenRoof            56.39      0.00      0.00      0.00      0.00      7.05     63.44        0.00
  sub67             GreenRoof            56.39      0.00      0.00      0.00      0.00      7.05     63.44        0.00
  sub68             GreenRoof            56.39      0.00      0.00      0.00      0.00      7.05     63.44        0.00
  sub69             GreenRoof            56.39      0.00      0.00      0.00      0.00      7.05     63.44        0.00
  sub70             GreenRoof            56.39      0.00      0.00      0.00      0.00      7.05     63.44        0.00
  sub71             GreenRoof            56.39      0.00      0.00      0.00      0.00      7.05     63.44        0.00
  sub72             GreenRoof            56.39      0.00      0.00      0.00      0.00      7.05     63.44        0.00
  
  ******************
  Node Depth Summary
  ******************
  
  ---------------------------------------------------------------------------------
                                 Average  Maximum  Maximum  Time of Max    Reported
                                   Depth    Depth      HGL   Occurrence   Max Depth
  Node                 Type       Meters   Meters   Meters  days hr:min      Meters
  ---------------------------------------------------------------------------------
  WS02001211           JUNCTION     0.60     0.64     5.48     0  03:19        0.64
  WS02001212           JUNCTION     0.34     0.38     5.45     0  03:20        0.38
  WS02001213           JUNCTION     0.55     0.65     5.41     0  03:20        0.65
  WS02003059           JUNCTION     0.61     0.72     5.40     0  03:19        0.72
  WS02003060           JUNCTION     0.32     0.45     5.39     0  03:19        0.45
  WS02003066           JUNCTION     0.18     0.30     5.85     0  03:18        0.30
  WS02003067           JUNCTION     0.47     0.70     6.02     0  03:18        0.70
  WS02003069           JUNCTION     0.36     0.51     5.10     0  03:19        0.51
  WS02003072           JUNCTION     0.42     0.58     4.95     0  03:12        0.58
  WS02003073           JUNCTION     0.25     0.35     4.41     0  03:12        0.35
  WS02004138           JUNCTION     0.13     0.14     7.39     0  00:29        0.14
  WS02004139           JUNCTION     0.54     0.58     5.49     0  03:20        0.58
  WS02004401           JUNCTION     0.58     0.88     6.88     0  02:33        0.88
  WS02004402           JUNCTION     0.61     0.90     6.86     0  02:34        0.90
  WS02004403           JUNCTION     0.63     0.92     6.85     0  02:21        0.92
  WS02004404           JUNCTION     0.71     1.04     6.89     0  02:20        1.00
  WS02004405           JUNCTION     0.69     0.97     6.82     0  02:15        0.97
  WS02004406           JUNCTION     0.70     0.96     6.79     0  02:21        0.96
  WS02004407           JUNCTION     0.16     0.30     6.61     0  03:16        0.30
  WS02004409           JUNCTION     0.36     0.67     6.44     0  03:17        0.67
  WS02004410           JUNCTION     0.39     0.68     6.40     0  03:17        0.68
  WS02004411           JUNCTION     0.41     0.69     6.37     0  03:17        0.69
  WS02004412           JUNCTION     0.43     0.70     6.34     0  03:17        0.70
  WS02004413           JUNCTION     0.58     0.86     6.33     0  03:18        0.86
  WS02006109           JUNCTION     0.64     1.57     8.19     0  01:44        0.99
  WS02006110           JUNCTION     0.64     2.01     8.59     0  01:44        0.94
  WS02006111           JUNCTION     0.17     0.29     6.99     0  01:48        0.29
  WS02006112           JUNCTION     0.74     1.10     6.98     0  02:13        1.08
  WS02006113           JUNCTION     0.26     0.46     7.35     0  01:38        0.45
  WS02006115           JUNCTION     0.47     0.78     6.92     0  02:13        0.78
  WS02006116           JUNCTION     0.55     0.86     6.90     0  02:29        0.86
  WS02006228           JUNCTION     0.64     1.73     8.38     0  01:44        1.10
  WS02006229           JUNCTION     0.62     1.81     8.50     0  01:44        1.12
  WS02006230           JUNCTION     0.64     2.24     8.98     0  01:44        1.20
  WS02006231           JUNCTION     0.44     1.92     9.05     0  01:45        1.17
  WS02006232           JUNCTION     0.58     2.18     9.22     0  01:33        1.25
  WS02006234           JUNCTION     0.53     1.96     9.12     0  01:45        1.53
  WS02006235           JUNCTION     0.58     2.00     9.16     0  01:45        1.44
  WS02006238           JUNCTION     0.60     2.07     9.21     0  01:45        1.42
  WS02006239           JUNCTION     0.57     2.03     9.24     0  01:33        1.31
  WS02006240           JUNCTION     0.54     2.04     9.34     0  01:33        1.26
  WS02006242           JUNCTION     0.60     1.55     8.82     0  01:33        1.34
  WS02006243           JUNCTION     0.53     1.48     8.90     0  01:33        1.23
  WS02006245           JUNCTION     0.53     1.32     8.81     0  01:43        1.19
  WS02006247           JUNCTION     0.54     1.26     8.76     0  01:43        1.19
  WS02006248           JUNCTION     0.51     1.10     8.69     0  01:34        1.10
  WS02006249           JUNCTION     0.53     1.09     8.69     0  01:34        1.09
  WS02006251           JUNCTION     0.54     2.08     9.75     0  01:34        1.13
  WS02006252           JUNCTION     0.34     1.50     9.74     0  00:00        0.68
  WS02006256           JUNCTION     1.29     2.35     9.28     0  00:00        2.35
  WSF200               JUNCTION     0.16     0.31     5.54     0  03:18        0.31
  YS02001580           JUNCTION     0.01     0.09     8.63     0  01:37        0.09
  YS02001583           JUNCTION     0.04     0.13     8.63     0  01:36        0.13
  YS02001586           JUNCTION     0.17     0.45     8.63     0  01:36        0.45
  YS02001590           JUNCTION     0.32     0.76     8.62     0  01:33        0.75
  YS02001593           JUNCTION     0.26     0.75     8.61     0  01:33        0.72
  YS02001596           JUNCTION     0.46     1.17     8.59     0  01:33        1.15
  YS02001600           JUNCTION     0.60     1.43     8.56     0  01:33        1.40
  YS02001601           JUNCTION     0.81     1.69     8.53     0  01:33        1.68
  YS02001602           JUNCTION     0.69     1.46     8.36     0  01:33        1.44
  YS02001605           JUNCTION     0.61     1.27     8.17     0  01:36        1.26
  YS02001607           JUNCTION     0.52     0.98     7.83     0  02:07        0.98
  YS02001610           JUNCTION     0.57     1.02     7.82     0  02:07        1.02
  YS02001613           JUNCTION     0.52     0.97     7.81     0  02:07        0.97
  YS02001616           JUNCTION     0.45     0.89     7.80     0  02:06        0.89
  YS02001619           JUNCTION     0.43     0.86     7.79     0  02:06        0.86
  YS02001622           JUNCTION     0.42     0.86     7.76     0  02:07        0.86
  YS02001625           JUNCTION     0.68     1.13     7.73     0  02:06        1.13
  YS02001629           JUNCTION     0.58     1.12     7.67     0  02:06        1.12
  YS02001633           JUNCTION     0.65     1.16     7.62     0  02:06        1.16
  YS02001641           JUNCTION     0.60     1.03     7.47     0  02:05        1.03
  YS02001644           JUNCTION     0.59     0.99     7.43     0  02:05        0.99
  YS02001647           JUNCTION     0.33     0.67     7.28     0  02:04        0.67
  YS02001649           JUNCTION     0.39     0.86     7.25     0  02:00        0.86
  YS02001652           JUNCTION     0.25     0.66     7.26     0  02:03        0.66
  YS02001655           JUNCTION     0.13     0.40     7.25     0  02:01        0.40
  YS02001658           JUNCTION     0.09     0.18     7.33     0  01:32        0.18
  YS02001661           JUNCTION     0.15     0.25     7.65     0  01:32        0.25
  YS02001664           JUNCTION     0.08     0.16     8.08     0  01:32        0.16
  YS02001745           JUNCTION     0.07     0.14     7.65     0  01:30        0.14
  YS02001748           JUNCTION     0.08     0.16     7.23     0  01:30        0.16
  YS02001751           JUNCTION     0.10     0.33     7.21     0  02:01        0.33
  YS02001754           JUNCTION     0.19     0.61     7.22     0  02:06        0.61
  YS02001757           JUNCTION     0.41     0.95     7.21     0  02:00        0.95
  YS02001759           JUNCTION     0.34     0.85     7.21     0  02:00        0.85
  YS02001762           JUNCTION     0.32     0.81     7.21     0  02:02        0.81
  YS02001765           JUNCTION     0.29     0.77     7.22     0  02:02        0.77
  YS02001767           JUNCTION     0.28     0.73     7.22     0  02:03        0.73
  YS02001770           JUNCTION     0.29     0.72     7.22     0  02:01        0.72
  YS02001774           JUNCTION     0.36     0.80     7.22     0  02:01        0.79
  YS02001779           JUNCTION     0.17     0.53     7.22     0  02:02        0.53
  YS02001783           JUNCTION     0.31     0.63     6.77     0  01:34        0.63
  YS02001784           JUNCTION     0.33     0.64     6.71     0  01:34        0.64
  YS02001786           JUNCTION     0.28     0.54     6.57     0  01:34        0.54
  YS02001788           JUNCTION     0.21     0.42     6.40     0  01:35        0.42
  YS02001790           JUNCTION     0.26     0.51     6.15     0  01:35        0.51
  YS02001791           JUNCTION     0.16     0.31     5.78     0  01:35        0.31
  YS02001793           JUNCTION     0.08     0.16     4.99     0  01:35        0.16
  YS02001882           JUNCTION     0.34     0.65     7.36     0  01:32        0.65
  YS02001884           JUNCTION     0.43     0.74     7.36     0  01:32        0.73
  YS02001887           JUNCTION     0.51     0.82     7.35     0  01:32        0.81
  YS02001890           JUNCTION     0.54     0.85     7.35     0  01:32        0.84
  YS02001895           JUNCTION     0.31     0.60     7.35     0  01:33        0.59
  YS02001898           JUNCTION     0.32     0.61     7.35     0  01:31        0.60
  YS02001901           JUNCTION     0.44     0.74     7.35     0  01:33        0.74
  YS02001904           JUNCTION     0.42     0.71     7.34     0  01:31        0.71
  YS02001907           JUNCTION     0.73     1.06     7.34     0  01:31        1.05
  YS02001910           JUNCTION     0.53     0.85     7.36     0  01:31        0.85
  YS02001915           JUNCTION     0.34     0.63     7.35     0  01:31        0.62
  YS02001918           JUNCTION     0.13     0.27     7.34     0  01:32        0.27
  YS02001920           JUNCTION     0.21     0.36     7.36     0  01:32        0.35
  YS02001923           JUNCTION     0.08     0.15     7.41     0  01:33        0.15
  YS02001926           JUNCTION     0.16     0.27     7.72     0  01:33        0.27
  YS02001929           JUNCTION     0.08     0.15     7.84     0  01:32        0.15
  YS02006553           JUNCTION     0.74     1.06     7.34     0  01:30        1.04
  YS02006556           JUNCTION     0.71     1.02     7.33     0  01:31        1.01
  YS02006558           JUNCTION     0.75     1.07     7.34     0  01:31        1.06
  YS02006561           JUNCTION     0.17     0.36     7.02     0  01:34        0.36
  YS02163301           JUNCTION     0.60     1.13     7.65     0  02:06        1.13
  YS02163601           JUNCTION     0.67     1.15     7.54     0  02:06        1.15
  YS02164001           JUNCTION     0.60     1.05     7.50     0  02:06        1.05
  CC-1                 OUTFALL      0.00     0.00     0.00     0  00:00        0.00
  CC-2                 OUTFALL      0.00     0.00     0.00     0  00:00        0.00
  JK-1                 OUTFALL      0.00     0.00     0.00     0  00:00        0.00
  JK-2                 OUTFALL      0.00     0.00     0.00     0  00:00        0.00
  WSC                  OUTFALL      0.25     0.35     1.02     0  03:13        0.35
  CC-storage           STORAGE      0.87     1.40     6.90     0  01:54        1.40
  JK-storage           STORAGE      2.76     4.21     5.01     0  01:36        4.17
  XR-storage           STORAGE      7.74     9.26     7.26     0  08:00        9.26
  
  
  *******************
  Node Inflow Summary
  *******************
  
  -------------------------------------------------------------------------------------------------
                                  Maximum  Maximum                  Lateral       Total        Flow
                                  Lateral    Total  Time of Max      Inflow      Inflow     Balance
                                   Inflow   Inflow   Occurrence      Volume      Volume       Error
  Node                 Type           LPS      LPS  days hr:min    10^6 ltr    10^6 ltr     Percent
  -------------------------------------------------------------------------------------------------
  WS02001211           JUNCTION      7.35   200.47     0  03:29       0.212        5.44       0.611
  WS02001212           JUNCTION      0.00   203.64     0  03:30           0        5.41       0.290
  WS02001213           JUNCTION      0.00   206.55     0  03:29           0        5.39       0.331
  WS02003059           JUNCTION      0.00   212.88     0  03:29           0        5.38       0.591
  WS02003060           JUNCTION     16.53   753.21     0  03:18       0.476        9.78       0.144
  WS02003066           JUNCTION      0.00   538.79     0  03:18           0        3.95       0.031
  WS02003067           JUNCTION      0.00   538.70     0  03:18           0        3.96       0.101
  WS02003069           JUNCTION      0.32   752.97     0  03:19     0.00922        9.77       0.151
  WS02003072           JUNCTION      0.00   752.49     0  03:19           0        9.75       0.207
  WS02003073           JUNCTION      1.82   754.11     0  03:12      0.0524        9.78       0.213
  WS02004138           JUNCTION      0.00   380.00     0  00:00           0        5.25       0.053
  WS02004139           JUNCTION      0.32   191.16     0  00:29     0.00924        5.26       0.509
  WS02004401           JUNCTION      0.00   542.66     0  02:13           0        4.05       0.244
  WS02004402           JUNCTION      0.00   542.53     0  02:06           0        4.04       0.249
  WS02004403           JUNCTION      0.00   542.03     0  02:33           0        4.03       0.239
  WS02004404           JUNCTION      0.16   557.53     0  02:11     0.00467        4.02       0.098
  WS02004405           JUNCTION      0.04   607.41     0  02:15      0.0011        4.02       0.277
  WS02004406           JUNCTION      0.00   544.79     0  02:21           0        4.01       0.507
  WS02004407           JUNCTION      0.00   540.90     0  03:16           0        3.99       0.023
  WS02004409           JUNCTION      0.00   540.42     0  03:16           0        3.99       0.056
  WS02004410           JUNCTION      0.00   539.83     0  03:17           0        3.99       0.098
  WS02004411           JUNCTION      0.00   539.42     0  03:17           0        3.98       0.128
  WS02004412           JUNCTION      0.00   539.30     0  03:17           0        3.98       0.176
  WS02004413           JUNCTION      0.00   539.13     0  03:17           0        3.97       0.316
  WS02006109           JUNCTION      1.23   564.53     0  01:36      0.0354        4.09       0.198
  WS02006110           JUNCTION      0.00   564.67     0  01:46           0        4.09       0.151
  WS02006111           JUNCTION      0.00   560.78     0  01:57           0        4.08       0.013
  WS02006112           JUNCTION      0.00   543.82     0  02:13           0        4.08       0.437
  WS02006113           JUNCTION      0.00   573.79     0  01:44           0        4.08       0.042
  WS02006115           JUNCTION      0.00   558.78     0  01:56           0        4.06       0.152
  WS02006116           JUNCTION      0.00   541.73     0  02:13           0        4.05       0.135
  WS02006228           JUNCTION      0.00   563.27     0  01:36           0        4.06       0.073
  WS02006229           JUNCTION      0.00   562.67     0  01:36           0        4.07       0.108
  WS02006230           JUNCTION     10.28   588.83     0  01:36       0.296        4.07       0.134
  WS02006231           JUNCTION      0.00   568.49     0  01:54           0        3.77      -0.076
  WS02006232           JUNCTION      0.00   567.57     0  01:54           0        3.78       0.247
  WS02006234           JUNCTION      0.00   564.84     0  01:54           0        3.77      -0.204
  WS02006235           JUNCTION      0.00   563.01     0  01:46           0        3.83       0.220
  WS02006238           JUNCTION      0.00   425.63     0  01:50           0        2.55      -0.182
  WS02006239           JUNCTION      0.00   425.42     0  01:50           0        2.52      -0.159
  WS02006240           JUNCTION      0.00   422.76     0  01:50           0         2.5      -0.067
  WS02006242           JUNCTION      0.00   422.33     0  01:50           0        2.48      -0.132
  WS02006243           JUNCTION      0.00   421.55     0  01:50           0        2.47      -0.124
  WS02006245           JUNCTION      0.00   423.70     0  03:21           0        2.48       0.407
  WS02006247           JUNCTION      0.00   423.27     0  03:21           0        2.48      -0.024
  WS02006248           JUNCTION      0.00   422.20     0  01:50           0        2.47      -0.165
  WS02006249           JUNCTION      0.00   479.97     0  03:20           0        2.87       0.596
  WS02006251           JUNCTION      0.08   419.01     0  01:34     0.00222        2.87       0.014
  WS02006252           JUNCTION      0.00   400.00     0  00:00           0        2.86      -0.303
  WS02006256           JUNCTION      0.00   300.00     0  00:00           0        1.93      -0.368
  WSF200               JUNCTION      0.00   538.87     0  03:18           0        3.95       0.012
  YS02001580           JUNCTION      0.00     4.31     0  01:34           0    0.000571       2.864
  YS02001583           JUNCTION      0.00     8.12     0  01:33           0     0.00235      -6.966
  YS02001586           JUNCTION    185.64   185.64     0  02:06        1.18        1.19       0.052
  YS02001590           JUNCTION      0.00   190.19     0  02:10           0        1.18      -0.035
  YS02001593           JUNCTION      0.00   190.64     0  02:10           0        1.18       0.005
  YS02001596           JUNCTION      0.00   192.28     0  02:13           0        1.18      -0.011
  YS02001600           JUNCTION      0.00   192.41     0  02:13           0        1.18       0.003
  YS02001601           JUNCTION    288.81   452.90     0  01:33        1.59        2.78       0.022
  YS02001602           JUNCTION      0.00   452.94     0  01:33           0        2.78       0.011
  YS02001605           JUNCTION      0.00   453.84     0  01:33           0        2.77       0.014
  YS02001607           JUNCTION      0.00   453.44     0  01:33           0        2.77       0.065
  YS02001610           JUNCTION      0.00   452.66     0  01:36           0        2.77       0.090
  YS02001613           JUNCTION      0.00   452.60     0  01:36           0        2.77       0.063
  YS02001616           JUNCTION      0.00   453.06     0  01:36           0        2.78       0.017
  YS02001619           JUNCTION    299.17   743.24     0  01:36        1.83         4.6      -0.001
  YS02001622           JUNCTION      0.00   743.11     0  01:37           0         4.6      -0.002
  YS02001625           JUNCTION      0.00   744.20     0  01:37           0         4.6       0.218
  YS02001629           JUNCTION      0.00   744.23     0  01:37           0        4.59       0.012
  YS02001633           JUNCTION    220.13   953.58     0  01:36         1.2         5.8       0.056
  YS02001641           JUNCTION      0.00   953.81     0  01:36           0         5.8       0.049
  YS02001644           JUNCTION    183.23  1129.12     0  01:35       0.987        6.78       0.047
  YS02001647           JUNCTION      0.00  1128.33     0  01:35           0        6.76       0.007
  YS02001649           JUNCTION      0.00  1292.85     0  01:34           0         7.7       0.007
  YS02001652           JUNCTION      0.00   177.49     0  02:07           0        0.94      -0.144
  YS02001655           JUNCTION      0.15   172.54     0  01:32     0.00443       0.941       0.110
  YS02001658           JUNCTION      0.00   172.41     0  01:32           0       0.937      -0.002
  YS02001661           JUNCTION      0.00   172.43     0  01:32           0       0.937       0.041
  YS02001664           JUNCTION    172.45   172.45     0  01:32       0.937       0.937      -0.013
  YS02001745           JUNCTION    103.94   103.94     0  01:31        0.54        0.54      -0.005
  YS02001748           JUNCTION      0.04   103.99     0  01:30      0.0013       0.542      -0.003
  YS02001751           JUNCTION      0.01   104.00     0  01:30    0.000317       0.542       0.072
  YS02001754           JUNCTION      0.26   253.63     0  02:18     0.00749       0.559      -0.082
  YS02001757           JUNCTION      0.00  1776.76     0  02:18           0        10.2       0.021
  YS02001759           JUNCTION    151.17   360.93     0  02:19       0.789        1.97      -0.013
  YS02001762           JUNCTION      0.00   215.13     0  02:13           0        1.18       0.013
  YS02001765           JUNCTION      0.00   240.06     0  02:20           0        1.18       0.016
  YS02001767           JUNCTION      0.54   216.63     0  01:30      0.0154        1.18       0.012
  YS02001770           JUNCTION    220.54   220.92     0  01:30        1.16        1.19      -0.008
  YS02001774           JUNCTION      0.00    35.02     0  01:08           0      0.0466       2.767
  YS02001779           JUNCTION      0.01    16.52     0  02:25    0.000144      0.0168       0.154
  YS02001783           JUNCTION      0.00   681.40     0  01:34           0        3.54       0.006
  YS02001784           JUNCTION      1.06   679.39     0  01:34      0.0305        3.57       0.015
  YS02001786           JUNCTION      0.06   677.79     0  01:34     0.00162        3.57       0.019
  YS02001788           JUNCTION      0.07   678.43     0  01:34     0.00204        3.57       0.010
  YS02001790           JUNCTION      0.15   679.66     0  01:35     0.00446        3.58       0.012
  YS02001791           JUNCTION      0.00   691.10     0  01:35           0        3.58       0.006
  YS02001793           JUNCTION      0.00   679.68     0  01:35           0        3.58       0.005
  YS02001882           JUNCTION      0.00    34.27     0  02:01           0      0.0452       1.561
  YS02001884           JUNCTION      0.00    53.26     0  01:15           0      0.0812       3.181
  YS02001887           JUNCTION    156.27   180.77     0  01:33       0.821       0.854       0.507
  YS02001890           JUNCTION      0.00   175.32     0  01:33           0       0.813       0.632
  YS02001895           JUNCTION      0.00   182.64     0  01:33           0       0.808       0.263
  YS02001898           JUNCTION      0.00   187.30     0  01:34           0       0.806       0.002
  YS02001901           JUNCTION      0.00   198.44     0  01:33           0        0.81       0.417
  YS02001904           JUNCTION      0.00   184.53     0  01:34           0       0.818       0.351
  YS02001907           JUNCTION      0.00   481.46     0  01:34           0        2.47       0.702
  YS02001910           JUNCTION      0.00   343.82     0  01:33           0        1.65       0.440
  YS02001915           JUNCTION    188.15   315.42     0  01:32        1.01        1.66       0.092
  YS02001918           JUNCTION      0.00   113.82     0  01:33           0        0.65       0.044
  YS02001920           JUNCTION      2.87   104.84     0  01:33      0.0827       0.651       0.160
  YS02001923           JUNCTION      0.04   101.97     0  01:33     0.00109       0.569       0.001
  YS02001926           JUNCTION      0.05   101.99     0  01:32      0.0015       0.568       0.044
  YS02001929           JUNCTION    101.95   101.95     0  01:32       0.566       0.566      -0.011
  YS02006553           JUNCTION      0.00   482.11     0  01:34           0        2.47       0.486
  YS02006556           JUNCTION      0.00   481.29     0  01:34           0        2.48       0.334
  YS02006558           JUNCTION    212.91   689.04     0  01:34        1.14        3.58       0.118
  YS02006561           JUNCTION      0.00   698.66     0  01:33           0        3.54      -0.028
  YS02163301           JUNCTION      0.00   745.39     0  01:37           0         4.6       0.035
  YS02163601           JUNCTION      0.11   953.70     0  01:36     0.00317        5.79       0.087
  YS02164001           JUNCTION      0.00   953.70     0  01:36           0        5.79       0.043
  CC-1                 OUTFALL       0.00   683.00     0  00:00           0        4.43       0.000
  CC-2                 OUTFALL       0.00   683.00     0  00:00           0        3.67       0.000
  JK-1                 OUTFALL       0.00  1000.00     0  00:00           0        1.56       0.000
  JK-2                 OUTFALL       0.00  1000.00     0  00:00           0      0.0484       0.000
  WSC                  OUTFALL       0.00   754.02     0  03:13           0        9.76       0.000
  CC-storage           STORAGE       0.00  1670.31     0  02:09           0        12.4      -0.151
  JK-storage           STORAGE       0.00   679.64     0  01:35           0        3.73       0.190
  XR-storage           STORAGE     200.00   200.00     0  00:00        5.76        6.36       0.001
  
  
  **********************
  Node Surcharge Summary
  **********************
  
  Surcharging occurs when water rises above the top of the highest conduit.
  ---------------------------------------------------------------------
                                               Max. Height   Min. Depth
                                   Hours       Above Crown    Below Rim
  Node                 Type      Surcharged         Meters       Meters
  ---------------------------------------------------------------------
  WS02004404           JUNCTION        0.10          0.037        2.743
  WS02006109           JUNCTION        1.76          0.748        1.072
  WS02006110           JUNCTION        1.43          1.098        0.752
  WS02006112           JUNCTION        1.48          0.097        1.583
  WS02006228           JUNCTION        1.75          0.896        1.304
  WS02006229           JUNCTION        1.76          1.005        1.445
  WS02006230           JUNCTION        1.46          1.155        0.415
  WS02006231           JUNCTION        1.50          1.214        0.316
  WS02006232           JUNCTION        1.77          1.480        0.000
  WS02006234           JUNCTION        1.63          1.240        0.000
  WS02006235           JUNCTION        1.74          1.290        0.000
  WS02006238           JUNCTION        1.76          1.348        0.082
  WS02006239           JUNCTION        1.73          1.290        0.000
  WS02006240           JUNCTION        1.72          1.333        0.057
  WS02006242           JUNCTION        1.72          0.820        0.000
  WS02006243           JUNCTION        1.71          0.770        0.000
  WS02006245           JUNCTION        1.70          0.610        0.240
  WS02006247           JUNCTION        1.70          0.552        0.208
  WS02006248           JUNCTION        1.69          0.380        0.000
  WS02006249           JUNCTION        1.69          0.390        0.000
  WS02006251           JUNCTION        1.52          1.048        0.132
  WS02006252           JUNCTION        1.92          1.100        0.000
  WS02006256           JUNCTION        4.18          2.050        0.000
  YS02001590           JUNCTION        0.67          0.111        0.639
  YS02001593           JUNCTION        0.67          0.130        0.710
  YS02001596           JUNCTION        1.09          0.436        0.634
  YS02001600           JUNCTION        1.49          0.746        0.444
  YS02001601           JUNCTION        1.90          1.070        0.370
  YS02001602           JUNCTION        1.83          0.860        0.410
  YS02001605           JUNCTION        1.79          0.666        0.514
  YS02001610           JUNCTION        0.36          0.022        0.658
  YS02001625           JUNCTION        0.90          0.127        0.653
  YS02001633           JUNCTION        0.95          0.142        0.918
  YS02001641           JUNCTION        0.54          0.034        1.066
  YS02001907           JUNCTION        0.54          0.046        0.904
  YS02006553           JUNCTION        0.79          0.060        1.130
  YS02163301           JUNCTION        0.88          0.129        0.901
  YS02163601           JUNCTION        1.07          0.147        0.933
  YS02164001           JUNCTION        0.70          0.046        1.054
  
  
  *********************
  Node Flooding Summary
  *********************
  
  Flooding refers to all water that overflows a node, whether it ponds or not.
  --------------------------------------------------------------------------
                                                             Total   Maximum
                                 Maximum   Time of Max       Flood    Ponded
                        Hours       Rate    Occurrence      Volume     Depth
  Node                 Flooded       LPS   days hr:min    10^6 ltr    Meters
  --------------------------------------------------------------------------
  WS02006232              0.01     66.14      0  01:33       0.000     0.000
  WS02006234              0.01    139.75      0  01:45       0.000     0.000
  WS02006235              0.01     16.96      0  01:45       0.000     0.000
  WS02006239              0.01     40.70      0  01:33       0.000     0.000
  WS02006242              0.01     79.35      0  01:33       0.000     0.000
  WS02006243              0.01     40.22      0  01:33       0.000     0.000
  WS02006248              0.01     25.42      0  01:34       0.000     0.000
  WS02006249              1.51    134.44      0  01:34       0.379     0.000
  WS02006252              0.01    325.58      0  03:20       0.001     0.000
  WS02006256              1.78    293.19      0  00:00       0.634     0.000
  
  
  **********************
  Storage Volume Summary
  **********************
  
  ------------------------------------------------------------------------------------------------
                         Average    Avg   Evap  Exfil     Maximum    Max    Time of Max    Maximum
                          Volume   Pcnt   Pcnt   Pcnt      Volume   Pcnt     Occurrence    Outflow
  Storage Unit           1000 m³   Full   Loss   Loss     1000 m³   Full    days hr:min        LPS
  ------------------------------------------------------------------------------------------------
  CC-storage               2.413   37.6    0.0    0.0       3.902   60.9       0  01:54    1783.53
  JK-storage               0.139   47.6    0.0    0.0       0.211   72.5       0  01:36    2300.00
  XR-storage               0.929   64.5    0.0    0.0       1.111   77.2       0  08:00     380.00
  
  
  ***********************
  Outfall Loading Summary
  ***********************
  
  -----------------------------------------------------------
                         Flow       Avg       Max       Total
                         Freq      Flow      Flow      Volume
  Outfall Node           Pcnt       LPS       LPS    10^6 ltr
  -----------------------------------------------------------
  CC-1                  42.17    683.00    683.00       4.426
  CC-2                  29.13    683.00    683.00       3.671
  JK-1                  16.19   1000.00   1000.00       1.556
  JK-2                   0.22   1000.00   1000.00       0.048
  WSC                   99.94    424.52    754.02       9.762
  -----------------------------------------------------------
  System                37.53   3790.52   3366.23      19.464
  
  
  ********************
  Link Flow Summary
  ********************
  
  -----------------------------------------------------------------------------
                                 Maximum  Time of Max   Maximum    Max/    Max/
                                  |Flow|   Occurrence   |Veloc|    Full    Full
  Link                 Type          LPS  days hr:min     m/sec    Flow   Depth
  -----------------------------------------------------------------------------
  1                    CONDUIT    754.02     0  03:13      3.08    0.26    0.35
  WS02001211WS02001212 CONDUIT    203.64     0  03:30      0.54    0.16    0.51
  WS02001212WS02001213 CONDUIT    206.55     0  03:29      1.04    0.32    0.36
  WS02001213WS02003059 CONDUIT    212.88     0  03:29      0.47    0.35    0.67
  WS02003059WS02003060 CONDUIT    221.20     0  03:28      0.67    0.14    0.59
  WS02003060WS02003069 CONDUIT    752.65     0  03:19      1.77    0.29    0.40
  WS02003066WSF200     CONDUIT    538.87     0  03:18      2.74    0.09    0.23
  WS02003067WS02003066 CONDUIT    538.79     0  03:18      1.21    0.17    0.42
  WS02003069WS02003072 CONDUIT    752.49     0  03:19      1.51    0.36    0.45
  WS02003072WS02003073 CONDUIT    752.29     0  03:12      1.60    1.62    0.43
  WS02004138WS02004139 CONDUIT    190.84     0  00:29      2.17    0.04    0.33
  WS02004139WS02001211 CONDUIT    193.12     0  03:29      0.54    0.24    0.47
  WS02004401WS02004402 CONDUIT    542.53     0  02:06      0.97    0.65    0.89
  WS02004402WS02004403 CONDUIT    542.03     0  02:33      0.97    0.78    0.91
  WS02004403WS02004404 CONDUIT    557.37     0  02:11      0.92    0.40    0.96
  WS02004404WS02004405 CONDUIT    607.37     0  02:15      1.08    5.95    0.98
  WS02004405WS02004406 CONDUIT    544.79     0  02:21      0.99    1.07    0.96
  WS02004406WS02004407 CONDUIT    540.90     0  03:16      1.04    0.24    0.63
  WS02004407WS02004409 CONDUIT    540.42     0  03:16      1.54    0.19    0.48
  WS02004409WS02004410 CONDUIT    539.83     0  03:17      1.02    0.70    0.68
  WS02004410WS02004411 CONDUIT    539.42     0  03:17      0.95    0.74    0.69
  WS02004411WS02004412 CONDUIT    539.30     0  03:17      0.93    0.77    0.70
  WS02004412WS02004413 CONDUIT    539.13     0  03:17      0.82    0.36    0.78
  WS02004413WS02003067 CONDUIT    538.70     0  03:18      1.11    0.23    0.59
  WS02006109WS02006110 CONDUIT    564.67     0  01:46      1.12    1.09    1.00
  WS02006110WS02006113 CONDUIT    573.79     0  01:44      1.40    0.52    0.78
  WS02006111WS02006112 CONDUIT    543.82     0  02:13      1.82    0.26    0.67
  WS02006112WS02006115 CONDUIT    558.78     0  01:56      0.83    0.33    0.88
  WS02006113WS02006111 CONDUIT    560.78     0  01:57      2.47    0.67    0.46
  WS02006115WS02006116 CONDUIT    541.73     0  02:13      0.97    0.70    0.79
  WS02006116WS02004401 CONDUIT    542.66     0  02:13      0.98    0.75    0.87
  WS02006228WS02006109 CONDUIT    563.30     0  01:36      1.12    2.46    1.00
  WS02006229WS02006228 CONDUIT    563.27     0  01:36      1.15    1.87    1.00
  WS02006230WS02006229 CONDUIT    562.67     0  01:36      1.46   12.52    1.00
  WS02006231WS02006230 CONDUIT    578.55     0  01:36      1.59    8.78    1.00
  WS02006232WS02006231 CONDUIT    568.49     0  01:54      1.49    1.19    1.00
  WS02006234WS02006232 CONDUIT    567.57     0  01:54      1.47    1.15    1.00
  WS02006235WS02006234 CONDUIT    564.84     0  01:54      1.47    5.96    1.00
  WS02006238WS02006235 CONDUIT    425.28     0  01:50      1.55    0.95    1.00
  WS02006239WS02006238 CONDUIT    425.63     0  01:50      1.11    1.36    1.00
  WS02006240WS02006239 CONDUIT    425.42     0  01:50      1.24    1.34    1.00
  WS02006242WS02006240 CONDUIT    422.76     0  01:50      1.12    1.68    1.00
  WS02006243WS02006242 CONDUIT    422.33     0  01:50      1.39    0.90    1.00
  WS02006245WS02006243 CONDUIT    421.55     0  01:50      1.45    1.25    1.00
  WS02006247WS02006245 CONDUIT    423.70     0  03:21      1.44    3.36    1.00
  WS02006248WS02006247 CONDUIT    423.27     0  03:21      1.45    0.92    1.00
  WS02006249WS02006248 CONDUIT    422.20     0  01:50      1.37    2.31    1.00
  WS02006251WS02006249 CONDUIT    479.97     0  03:20      1.99    1.38    1.00
  WS02006252WS02006251 CONDUIT    418.93     0  01:34     25.20    1.54    1.00
  WS02006256WS02006235 CONDUIT    289.20     0  01:23      4.23    3.06    1.00
  WSF200WS02003060     CONDUIT    539.25     0  03:18      1.75    0.12    0.32
  YS02001580YS02001583 CONDUIT      4.31     0  01:34      0.22    0.02    0.18
  YS02001583YS02001586 CONDUIT      8.12     0  01:33      0.08    0.01    0.44
  YS02001586YS02001590 CONDUIT    190.19     0  02:10      1.26    0.33    0.88
  YS02001590YS02001593 CONDUIT    190.64     0  02:10      1.05    1.20    1.00
  YS02001593YS02001596 CONDUIT    192.28     0  02:13      1.71    0.30    1.00
  YS02001596YS02001600 CONDUIT    192.41     0  02:13      1.20    0.37    1.00
  YS02001600YS02001601 CONDUIT    192.28     0  02:13      0.68    0.33    1.00
  YS02001601YS02001602 CONDUIT    452.94     0  01:33      1.60    1.64    1.00
  YS02001602YS02001605 CONDUIT    453.84     0  01:33      1.61    9.60    1.00
  YS02001605YS02001607 CONDUIT    453.44     0  01:33      1.60    2.49    1.00
  YS02001607YS02001610 CONDUIT    452.66     0  01:36      0.67    0.43    0.99
  YS02001610YS02001613 CONDUIT    452.60     0  01:36      0.59    0.52    0.98
  YS02001613YS02001616 CONDUIT    453.06     0  01:36      0.64    0.39    0.93
  YS02001616YS02001619 CONDUIT    453.17     0  01:36      0.69    0.79    0.87
  YS02001619YS02001622 CONDUIT    743.11     0  01:37      1.44    1.10    0.86
  YS02001622YS02001625 CONDUIT    744.20     0  01:37      0.98    0.40    0.93
  YS02001625YS02001629 CONDUIT    744.23     0  01:37      1.03    0.35    0.87
  YS02001629YS02163301 CONDUIT    745.39     0  01:37      0.95    0.92    1.00
  YS02001633YS02163601 CONDUIT    953.59     0  01:36      1.21    1.00    1.00
  YS02001641YS02001644 CONDUIT    953.84     0  01:36      1.22    3.08    1.00
  YS02001644YS02001647 CONDUIT   1128.33     0  01:35      1.70    0.66    0.83
  YS02001647YS02001649 CONDUIT   1127.65     0  01:35      2.12    0.60    0.76
  YS02001649YS02001757 CONDUIT   1285.92     0  01:35      2.31    0.78    0.91
  YS02001652YS02001649 CONDUIT    195.73     0  02:19      1.11    0.10    0.76
  YS02001655YS02001652 CONDUIT    177.49     0  02:07      1.48    0.09    0.51
  YS02001658YS02001655 CONDUIT    172.38     0  01:32      1.67    0.07    0.29
  YS02001661YS02001658 CONDUIT    172.41     0  01:32      1.80    0.07    0.18
  YS02001664YS02001661 CONDUIT    172.43     0  01:32      1.52    0.05    0.20
  YS02001745YS02001748 CONDUIT    103.95     0  01:30      1.61    0.04    0.14
  YS02001748YS02001751 CONDUIT    103.99     0  01:30      1.35    0.05    0.24
  YS02001751YS02001754 CONDUIT    151.15     0  02:19      1.36    0.07    0.44
  YS02001754YS02001757 CONDUIT    260.10     0  02:18      0.82    0.10    0.77
  YS02001757CaochengTiaoxuchi CONDUIT   1670.31     0  02:09      2.40    0.72    0.98
  YS02001759YS02001757 CONDUIT    353.68     0  01:29      1.16    0.25    0.90
  YS02001762YS02001759 CONDUIT    257.23     0  02:19      0.70    0.30    0.83
  YS02001765YS02001762 CONDUIT    215.13     0  02:13      0.81    0.20    0.79
  YS02001767YS02001765 CONDUIT    240.06     0  02:20      0.86    0.30    0.74
  YS02001770YS02001767 CONDUIT    216.10     0  01:30      0.77    0.86    0.72
  YS02001774YS02001770 CONDUIT     35.02     0  01:08      0.54    0.02    0.74
  YS02001779YS02001774 CONDUIT     23.01     0  02:20      0.16    0.01    0.66
  YS02001783YS02001784 CONDUIT    678.33     0  01:34      1.59    0.94    0.80
  YS02001784YS02001785 CONDUIT    677.73     0  01:34      1.71    1.58    0.74
  YS02001786YS02001788 CONDUIT    678.36     0  01:34      2.16    1.31    0.60
  YS02001788YS02001790 CONDUIT    679.50     0  01:35      2.25    0.50    0.58
  YS02001790YS02001791 CONDUIT    691.10     0  01:35      2.68    0.75    0.51
  YS02001791YS02001793 CONDUIT    679.68     0  01:35      5.56    0.29    0.29
  YS02001793JiankangQianchi CONDUIT    679.64     0  01:35      1.44    0.05    0.58
  YS02001882YS02001884 CONDUIT     34.27     0  02:01      0.29    0.04    0.66
  YS02001884YS02001887 CONDUIT     53.26     0  01:15      0.23    0.07    0.75
  YS02001887YS02001890 CONDUIT    175.32     0  01:33      0.27    0.30    0.80
  YS02001890YS02001895 CONDUIT    182.64     0  01:33      0.30    0.09    0.72
  YS02001895YS02001898 CONDUIT    187.30     0  01:34      0.55    0.33    0.59
  YS02001898YS02001901 CONDUIT    198.44     0  01:33      0.48    0.13    0.67
  YS02001901YS02001904 CONDUIT    184.53     0  01:34      0.49    0.29    0.72
  YS02001904YS02001907 CONDUIT    192.04     0  01:34      0.27    0.07    0.86
  YS02001907YS02006553 CONDUIT    482.11     0  01:34      0.54    0.57    1.00
  YS02001910YS02001907 CONDUIT    330.63     0  01:33      0.49    0.19    0.93
  YS02001915YS02001910 CONDUIT    343.82     0  01:33      0.93    0.17    0.73
  YS02001918YS02001915 CONDUIT    128.47     0  01:32      0.44    0.07    0.45
  YS02001920YS02001918 CONDUIT    113.82     0  01:33      0.65    0.11    0.31
  YS02001923YS02001920 CONDUIT    101.97     0  01:33      0.70    0.05    0.25
  YS02001926YS02001923 CONDUIT    101.94     0  01:33      0.78    0.15    0.22
  YS02001929YS02001926 CONDUIT    101.94     0  01:32      0.84    0.05    0.21
  YS02006553YS02006556 CONDUIT    481.29     0  01:34      0.62    0.41    0.99
  YS02006556YS02006558 CONDUIT    483.54     0  01:34      0.62    0.38    1.00
  YS02006558YS02006561 CONDUIT    698.66     0  01:33      3.12    1.54    0.75
  YS02006561YS02001783 CONDUIT    681.40     0  01:34      2.12    0.35    0.62
  YS02163301YS02001633 CONDUIT    745.70     0  01:37      0.95    0.70    1.00
  YS02163601YS02164001 CONDUIT    953.70     0  01:36      1.21    0.85    1.00
  YS02164001YS02001641 CONDUIT    953.81     0  01:36      1.21    1.30    1.00
  CC-R1                PUMP       683.00     0  00:00              1.00
  CC-R2                PUMP       683.00     0  00:00              1.00
  CC-S1                PUMP       200.00     0  00:00              1.00
  CC-S2                PUMP       200.00     0  00:00              1.00
  JK-R1                PUMP      1000.00     0  00:00              1.00
  JK-R2                PUMP      1000.00     0  00:00              1.00
  JK-S                 PUMP       300.00     0  00:00              1.00
  XR-1                 PUMP        95.00     0  00:00              1.00
  XR-2                 PUMP        95.00     0  00:00              1.00
  XR-3                 PUMP        95.00     0  00:00              1.00
  XR-4                 PUMP        95.00     0  00:00              1.00
  
  
  ***************************
  Flow Classification Summary
  ***************************
  
  -------------------------------------------------------------------------------------
                      Adjusted    ---------- Fraction of Time in Flow Class ---------- 
                       /Actual         Up    Down  Sub   Sup   Up    Down  Norm  Inlet 
  Conduit               Length    Dry  Dry   Dry   Crit  Crit  Crit  Crit  Ltd   Ctrl  
  -------------------------------------------------------------------------------------
  1                       1.00   0.00  0.00  0.00  0.00  1.00  0.00  0.00  0.14  0.00
  WS02001211WS02001212    1.00   0.00  0.02  0.00  0.98  0.00  0.00  0.00  0.00  0.00
  WS02001212WS02001213    1.00   0.02  0.00  0.00  0.24  0.00  0.74  0.00  0.00  0.00
  WS02001213WS02003059    1.00   0.00  0.01  0.00  0.99  0.00  0.00  0.00  0.00  0.00
  WS02003059WS02003060    1.00   0.00  0.00  0.00  1.00  0.00  0.00  0.00  0.03  0.00
  WS02003060WS02003069    1.00   0.00  0.00  0.00  0.98  0.02  0.00  0.00  0.67  0.00
  WS02003066WSF200        1.00   0.13  0.00  0.00  0.00  0.87  0.00  0.00  0.67  0.00
  WS02003067WS02003066    1.00   0.10  0.02  0.00  0.88  0.00  0.00  0.00  0.00  0.00
  WS02003069WS02003072    1.00   0.00  0.00  0.00  1.00  0.00  0.00  0.00  0.73  0.00
  WS02003072WS02003073    1.00   0.00  0.00  0.00  0.00  0.00  0.00  1.00  0.00  0.00
  WS02004138WS02004139    1.00   0.00  0.00  0.00  0.97  0.01  0.00  0.02  0.98  0.00
  WS02004139WS02001211    1.00   0.00  0.00  0.00  0.99  0.00  0.00  0.00  0.00  0.00
  WS02004401WS02004402    1.00   0.02  0.00  0.00  0.98  0.00  0.00  0.00  0.00  0.00
  WS02004402WS02004403    1.00   0.02  0.00  0.00  0.97  0.00  0.00  0.00  0.00  0.00
  WS02004403WS02004404    1.00   0.00  0.03  0.00  0.97  0.00  0.00  0.00  0.00  0.00
  WS02004404WS02004405    1.00   0.00  0.00  0.00  1.00  0.00  0.00  0.00  0.01  0.00
  WS02004405WS02004406    1.00   0.00  0.00  0.00  1.00  0.00  0.00  0.00  0.00  0.00
  WS02004406WS02004407    1.00   0.00  0.05  0.00  0.95  0.00  0.00  0.00  0.00  0.00
  WS02004407WS02004409    1.00   0.05  0.00  0.00  0.94  0.01  0.00  0.00  0.94  0.00
  WS02004409WS02004410    1.00   0.05  0.00  0.00  0.95  0.00  0.00  0.00  0.03  0.00
  WS02004410WS02004411    1.00   0.05  0.00  0.00  0.95  0.00  0.00  0.00  0.01  0.00
  WS02004411WS02004412    1.00   0.05  0.00  0.00  0.95  0.00  0.00  0.00  0.00  0.00
  WS02004412WS02004413    1.00   0.05  0.00  0.00  0.94  0.00  0.00  0.00  0.01  0.00
  WS02004413WS02003067    1.00   0.06  0.04  0.00  0.00  0.00  0.90  0.00  0.00  0.00
  WS02006109WS02006110    1.00   0.00  0.01  0.00  0.98  0.00  0.01  0.00  0.00  0.00
  WS02006110WS02006113    1.00   0.01  0.01  0.00  0.98  0.00  0.00  0.00  0.00  0.00
  WS02006111WS02006112    1.00   0.02  0.00  0.00  0.98  0.00  0.00  0.00  0.98  0.00
  WS02006112WS02006115    1.00   0.02  0.00  0.00  0.97  0.00  0.00  0.00  0.00  0.00
  WS02006113WS02006111    1.00   0.02  0.00  0.00  0.00  0.98  0.00  0.00  0.08  0.00
  WS02006115WS02006116    1.00   0.02  0.00  0.00  0.97  0.00  0.00  0.01  0.00  0.00
  WS02006116WS02004401    1.00   0.02  0.00  0.00  0.98  0.00  0.00  0.00  0.00  0.00
  WS02006228WS02006109    1.00   0.00  0.00  0.00  1.00  0.00  0.00  0.00  0.00  0.00
  WS02006229WS02006228    1.00   0.00  0.00  0.00  0.99  0.00  0.00  0.01  0.00  0.00
  WS02006230WS02006229    1.00   0.00  0.00  0.00  0.99  0.00  0.00  0.01  0.02  0.00
  WS02006231WS02006230    1.00   0.00  0.00  0.00  0.22  0.00  0.77  0.00  0.00  0.00
  WS02006232WS02006231    1.00   0.00  0.00  0.00  0.99  0.00  0.01  0.00  0.00  0.00
  WS02006234WS02006232    1.00   0.00  0.00  0.00  1.00  0.00  0.00  0.00  0.33  0.00
  WS02006235WS02006234    1.00   0.00  0.00  0.00  0.61  0.00  0.39  0.00  0.00  0.00
  WS02006238WS02006235    1.00   0.00  0.00  0.00  1.00  0.00  0.00  0.00  0.00  0.00
  WS02006239WS02006238    1.00   0.00  0.00  0.00  1.00  0.00  0.00  0.00  0.48  0.00
  WS02006240WS02006239    1.00   0.00  0.00  0.00  0.44  0.00  0.00  0.55  0.02  0.00
  WS02006242WS02006240    1.00   0.00  0.00  0.00  1.00  0.00  0.00  0.00  0.00  0.00
  WS02006243WS02006242    1.00   0.00  0.00  0.00  0.99  0.00  0.00  0.01  0.70  0.00
  WS02006245WS02006243    1.00   0.00  0.00  0.00  0.49  0.00  0.00  0.51  0.01  0.00
  WS02006247WS02006245    1.00   0.00  0.00  0.00  0.97  0.00  0.00  0.02  0.00  0.00
  WS02006248WS02006247    1.00   0.00  0.00  0.00  0.99  0.00  0.00  0.01  0.23  0.00
  WS02006249WS02006248    1.00   0.00  0.00  0.00  0.36  0.00  0.64  0.00  0.00  0.00
  WS02006251WS02006249    1.00   0.00  0.00  0.00  0.99  0.01  0.00  0.00  0.68  0.00
  WS02006252WS02006251    1.00   0.00  0.70  0.00  0.19  0.00  0.11  0.00  0.00  0.00
  WS02006256WS02006235    1.00   0.00  0.00  0.00  0.99  0.01  0.00  0.00  0.00  0.00
  WSF200WS02003060        1.00   0.00  0.13  0.00  0.66  0.22  0.00  0.00  0.64  0.00
  YS02001580YS02001583    1.00   0.19  0.64  0.00  0.17  0.00  0.00  0.00  0.76  0.00
  YS02001583YS02001586    1.00   0.47  0.29  0.00  0.23  0.00  0.00  0.00  0.76  0.00
  YS02001586YS02001590    1.00   0.13  0.00  0.00  0.42  0.03  0.00  0.43  0.35  0.00
  YS02001590YS02001593    1.00   0.13  0.00  0.00  0.14  0.00  0.73  0.00  0.00  0.00
  YS02001593YS02001596    1.00   0.13  0.00  0.00  0.18  0.03  0.00  0.66  0.05  0.00
  YS02001596YS02001600    1.00   0.13  0.00  0.00  0.25  0.01  0.00  0.61  0.03  0.00
  YS02001600YS02001601    1.00   0.13  0.01  0.00  0.87  0.00  0.00  0.00  0.58  0.00
  YS02001601YS02001602    1.00   0.13  0.00  0.00  0.87  0.00  0.00  0.00  0.00  0.00
  YS02001602YS02001605    1.00   0.13  0.00  0.00  0.87  0.00  0.00  0.00  0.00  0.00
  YS02001605YS02001607    1.00   0.13  0.00  0.00  0.87  0.00  0.00  0.00  0.00  0.00
  YS02001607YS02001610    1.00   0.13  0.00  0.00  0.87  0.00  0.00  0.00  0.00  0.00
  YS02001610YS02001613    1.00   0.13  0.00  0.00  0.87  0.00  0.00  0.00  0.00  0.00
  YS02001613YS02001616    1.00   0.13  0.00  0.00  0.87  0.00  0.00  0.00  0.00  0.00
  YS02001616YS02001619    1.00   0.13  0.00  0.00  0.87  0.00  0.00  0.00  0.00  0.00
  YS02001619YS02001622    1.00   0.13  0.00  0.00  0.87  0.00  0.00  0.00  0.34  0.00
  YS02001622YS02001625    1.00   0.13  0.00  0.00  0.87  0.01  0.00  0.00  0.01  0.00
  YS02001625YS02001629    1.00   0.13  0.02  0.00  0.22  0.00  0.63  0.00  0.00  0.00
  YS02001629YS02163301    1.00   0.13  0.00  0.00  0.86  0.00  0.00  0.00  0.00  0.00
  YS02001633YS02163601    1.00   0.00  0.01  0.00  0.99  0.00  0.00  0.00  0.13  0.00
  YS02001641YS02001644    1.00   0.00  0.01  0.00  0.99  0.00  0.00  0.00  0.00  0.00
  YS02001644YS02001647    1.00   0.00  0.14  0.00  0.86  0.00  0.00  0.00  0.00  0.00
  YS02001647YS02001649    1.00   0.00  0.14  0.00  0.57  0.29  0.00  0.00  0.58  0.00
  YS02001649YS02001757    1.00   0.00  0.00  0.00  0.67  0.33  0.00  0.00  0.54  0.00
  YS02001652YS02001649    1.00   0.00  0.00  0.00  0.99  0.01  0.00  0.00  0.71  0.00
  YS02001655YS02001652    1.00   0.00  0.00  0.00  0.23  0.01  0.00  0.76  0.13  0.00
  YS02001658YS02001655    1.00   0.00  0.13  0.00  0.62  0.25  0.00  0.00  0.80  0.00
  YS02001661YS02001658    1.00   0.13  0.00  0.00  0.44  0.43  0.00  0.00  0.83  0.00
  YS02001664YS02001661    1.00   0.13  0.00  0.00  0.64  0.24  0.00  0.00  0.87  0.00
  YS02001745YS02001748    1.00   0.00  0.00  0.00  0.00  0.00  0.00  1.00  0.00  0.00
  YS02001748YS02001751    1.00   0.00  0.00  0.00  0.77  0.23  0.00  0.00  0.89  0.00
  YS02001751YS02001754    1.00   0.00  0.00  0.00  0.15  0.01  0.00  0.83  0.07  0.00
  YS02001754YS02001757    1.00   0.00  0.00  0.00  0.99  0.01  0.00  0.00  0.80  0.00
  YS02001757CaochengTiaoxuchi    1.00   0.00  0.00  0.00  1.00  0.00  0.00  0.00  0.82  0.00
  YS02001759YS02001757    1.00   0.00  0.00  0.00  0.99  0.01  0.00  0.00  0.61  0.00
  YS02001762YS02001759    1.00   0.00  0.00  0.00  1.00  0.00  0.00  0.00  0.01  0.00
  YS02001765YS02001762    1.00   0.00  0.00  0.00  1.00  0.00  0.00  0.00  0.71  0.00
  YS02001767YS02001765    1.00   0.00  0.00  0.00  1.00  0.00  0.00  0.00  0.00  0.00
  YS02001770YS02001767    1.00   0.00  0.00  0.00  1.00  0.00  0.00  0.00  0.00  0.00
  YS02001774YS02001770    1.00   0.00  0.13  0.00  0.62  0.00  0.26  0.00  0.01  0.00
  YS02001779YS02001774    1.00   0.00  0.00  0.00  1.00  0.00  0.00  0.00  0.75  0.00
  YS02001783YS02001784    1.00   0.00  0.14  0.00  0.86  0.00  0.00  0.00  0.56  0.00
  YS02001784YS02001785    1.00   0.00  0.00  0.00  1.00  0.00  0.00  0.00  0.13  0.00
  YS02001786YS02001788    1.00   0.00  0.00  0.00  0.70  0.30  0.00  0.00  0.00  0.00
  YS02001788YS02001790    1.00   0.00  0.00  0.00  0.15  0.85  0.00  0.00  0.76  0.00
  YS02001790YS02001791    1.00   0.00  0.00  0.00  0.01  0.99  0.00  0.00  0.26  0.00
  YS02001791YS02001793    1.00   0.00  0.00  0.00  0.00  1.00  0.00  0.00  0.00  0.00
  YS02001793JiankangQianchi    1.00   0.00  0.00  0.00  1.00  0.00  0.00  0.00  1.00  0.00
  YS02001882YS02001884    1.00   0.13  0.00  0.00  0.86  0.00  0.00  0.00  0.00  0.00
  YS02001884YS02001887    1.00   0.06  0.05  0.00  0.89  0.00  0.00  0.00  0.00  0.00
  YS02001887YS02001890    1.00   0.00  0.00  0.00  0.97  0.00  0.03  0.00  0.00  0.00
  YS02001890YS02001895    1.00   0.00  0.13  0.00  0.86  0.00  0.00  0.00  0.00  0.00
  YS02001895YS02001898    1.00   0.14  0.00  0.00  0.85  0.00  0.01  0.00  0.00  0.00
  YS02001898YS02001901    1.00   0.14  0.00  0.00  0.86  0.00  0.00  0.00  0.00  0.00
  YS02001901YS02001904    1.00   0.14  0.00  0.00  0.86  0.00  0.00  0.00  0.00  0.00
  YS02001904YS02001907    1.00   0.00  0.14  0.00  0.86  0.00  0.00  0.00  0.00  0.00
  YS02001907YS02006553    1.00   0.00  0.02  0.00  0.98  0.00  0.00  0.00  0.00  0.00
  YS02001910YS02001907    1.00   0.00  0.00  0.00  0.97  0.00  0.00  0.03  0.11  0.00
  YS02001915YS02001910    1.00   0.00  0.00  0.00  0.97  0.03  0.00  0.00  0.11  0.00
  YS02001918YS02001915    1.00   0.00  0.01  0.00  0.98  0.02  0.00  0.00  0.71  0.00
  YS02001920YS02001918    1.00   0.00  0.01  0.00  0.99  0.00  0.00  0.00  0.00  0.00
  YS02001923YS02001920    1.00   0.00  0.00  0.00  1.00  0.00  0.00  0.00  1.00  0.00
  YS02001926YS02001923    1.00   0.00  0.07  0.00  0.00  0.00  0.93  0.00  0.00  0.00
  YS02001929YS02001926    1.00   0.00  0.13  0.00  0.87  0.00  0.00  0.00  0.87  0.00
  YS02006553YS02006556    1.00   0.01  0.00  0.00  0.99  0.00  0.00  0.00  0.03  0.00
  YS02006556YS02006558    1.00   0.00  0.00  0.00  1.00  0.00  0.00  0.00  0.00  0.00
  YS02006558YS02006561    1.00   0.14  0.00  0.00  0.00  0.86  0.00  0.00  0.18  0.00
  YS02006561YS02001783    1.00   0.14  0.00  0.00  0.00  0.86  0.00  0.00  0.67  0.00
  YS02163301YS02001633    1.00   0.00  0.13  0.00  0.87  0.00  0.00  0.00  0.00  0.00
  YS02163601YS02164001    1.00   0.00  0.08  0.00  0.92  0.00  0.00  0.00  0.00  0.00
  YS02164001YS02001641    1.00   0.01  0.07  0.00  0.92  0.00  0.00  0.00  0.05  0.00
  
  
  *************************
  Conduit Surcharge Summary
  *************************
  
  ----------------------------------------------------------------------------
                                                           Hours        Hours 
                         --------- Hours Full --------   Above Full   Capacity
  Conduit                Both Ends  Upstream  Dnstream   Normal Flow   Limited
  ----------------------------------------------------------------------------
  WS02003072WS02003073        0.01      0.01      0.01      1.89         0.01
  WS02004403WS02004404        0.01      0.01      0.08      0.01         0.01
  WS02004404WS02004405        0.01      0.08      0.01      2.16         0.01
  WS02004405WS02004406        0.01      0.01      0.01      1.38         0.01
  WS02006109WS02006110        1.43      1.43      1.77      1.49         0.01
  WS02006110WS02006113        0.01      0.01      1.77      0.01         0.01
  WS02006111WS02006112        0.01      0.01      1.85      0.01         0.01
  WS02006112WS02006115        0.01      0.01      1.48      0.01         0.01
  WS02006228WS02006109        1.76      1.77      1.76      1.94         1.76
  WS02006229WS02006228        1.75      1.76      1.75      1.85         1.74
  WS02006230WS02006229        1.78      1.81      1.78      2.72         1.78
  WS02006231WS02006230        1.46      1.46      1.52      2.33         0.01
  WS02006232WS02006231        1.50      1.50      1.77      1.54         0.01
  WS02006234WS02006232        1.72      1.72      1.77      1.53         1.53
  WS02006235WS02006234        1.63      1.63      1.74      2.26         0.01
  WS02006238WS02006235        1.75      1.75      1.77      0.01         0.01
  WS02006239WS02006238        1.73      1.74      1.76      1.73         1.63
  WS02006240WS02006239        1.72      1.72      1.73      1.75         1.63
  WS02006242WS02006240        1.72      1.72      1.75      1.82         0.01
  WS02006243WS02006242        1.71      1.71      1.72      0.01         0.02
  WS02006245WS02006243        1.70      1.70      1.71      0.31         0.23
  WS02006247WS02006245        1.70      1.70      1.70      1.99         1.69
  WS02006248WS02006247        1.69      1.69      1.70      0.01         0.02
  WS02006249WS02006248        1.69      1.69      1.69      1.97         0.01
  WS02006251WS02006249        1.69      1.69      1.69      1.84         1.64
  WS02006252WS02006251        1.92      1.92      1.92      1.93         0.01
  WS02006256WS02006235        2.26      2.29      4.17      1.79         0.01
  YS02001586YS02001590        0.01      0.01      0.67      0.01         0.01
  YS02001590YS02001593        0.67      0.67      0.72      0.96         0.01
  YS02001593YS02001596        0.70      0.70      1.09      0.01         0.01
  YS02001596YS02001600        1.22      1.22      1.49      0.01         0.01
  YS02001600YS02001601        1.67      1.67      1.90      0.01         0.01
  YS02001601YS02001602        1.83      1.83      1.92      1.65         0.01
  YS02001602YS02001605        1.79      1.79      1.83      2.40         0.01
  YS02001605YS02001607        1.75      1.79      1.75      1.88         1.75
  YS02001607YS02001610        0.01      0.01      0.36      0.01         0.01
  YS02001610YS02001613        0.01      0.01      0.36      0.01         0.01
  YS02001619YS02001622        0.01      0.01      0.01      0.81         0.01
  YS02001622YS02001625        0.01      0.01      0.90      0.01         0.01
  YS02001625YS02001629        0.01      0.01      0.90      0.01         0.01
  YS02001629YS02163301        0.85      0.85      0.88      0.01         0.01
  YS02001633YS02163601        0.95      0.95      1.07      0.03         0.04
  YS02001641YS02001644        0.01      0.53      0.01      1.92         0.01
  YS02001757CaochengTiaoxuchi        0.01      0.01      1.37      0.01         0.01
  YS02001784YS02001785        0.01      0.01      0.01      1.22         0.01
  YS02001786YS02001788        0.01      0.01      0.01      0.86         0.01
  YS02001793JiankangQianchi        0.01      0.01      7.70      0.01         0.01
  YS02001904YS02001907        0.01      0.01      0.82      0.01         0.01
  YS02001907YS02006553        1.25      1.25      1.37      0.01         0.01
  YS02001910YS02001907        0.01      0.01      0.54      0.01         0.01
  YS02006553YS02006556        0.01      0.01      0.79      0.01         0.01
  YS02006556YS02006558        0.05      0.05      0.85      0.01         0.01
  YS02006558YS02006561        0.01      0.01      0.01      1.11         0.01
  YS02163301YS02001633        0.88      0.88      1.04      0.01         0.01
  YS02163601YS02164001        0.70      0.70      1.07      0.01         0.01
  YS02164001YS02001641        0.53      0.70      0.53      1.19         0.53
  
  
  ***************
  Pumping Summary
  ***************
  
  ---------------------------------------------------------------------------------------------------------
                                                  Min       Avg       Max     Total     Power    % Time Off
                        Percent   Number of      Flow      Flow      Flow    Volume     Usage    Pump Curve
  Pump                 Utilized   Start-Ups       LPS       LPS       LPS  10^6 ltr     Kw-hr    Low   High
  ---------------------------------------------------------------------------------------------------------
  CC-R1                   22.49          14      0.00    683.00    683.00     4.424     79.61    0.0   30.7
  CC-R2                   18.65          14      0.00    683.00    683.00     3.669     65.62    0.0   37.0
  CC-S1                   25.59          14      0.00    200.00    200.00     1.474      9.15    0.0    0.0
  CC-S2                   24.06          14      0.00    200.00    200.00     1.386      8.62    0.0    0.0
  JK-R1                    5.40          10      0.00   1000.00   1000.00     1.554     15.70    0.0    0.0
  JK-R2                    0.16           1      0.00   1000.00   1000.00     0.047      0.36    0.0    0.0
  JK-S                    22.28          10      0.00    300.00    300.00     1.925     30.42    0.0    0.0
  XR-1                    97.91           2      0.00     95.00     95.00     2.679      9.60    0.0    0.0
  XR-2                    93.94           2      0.00     95.00     95.00     2.570      8.76    0.0    0.0
  XR-3                     0.00           1      0.00     95.00     95.00     0.000      0.00    0.0    0.0
  XR-4                     0.00           1      0.00     95.00     95.00     0.000      0.00    0.0    0.0
  

  Analysis begun on:  Wed Nov  5 16:19:00 2025
  Analysis ended on:  Wed Nov  5 16:19:02 2025
  Total elapsed time: 00:00:02