
  EPA STORM WATER MANAGEMENT MODEL - VERSION 5.2 (Build 5.2.4)
  PYSWMM TOOLKIT API - VERSION v1.0 (2023-11-27)
  ------------------------------------------------------------

  WARNING 04: minimum elevation drop used for Conduit WS02004404WS02004405
  WARNING 03: negative offset ignored for Link YS02001904YS02001907
  
  ****************
  Analysis Options
  ****************
  Flow Units ............... LPS
  Process Models:
    Rainfall/Runoff ........ YES
    RDII ................... NO
    Snowmelt ............... NO
    Groundwater ............ NO
    Flow Routing ........... YES
    Ponding Allowed ........ NO
    Water Quality .......... NO
  Infiltration Method ...... HORTON
  Flow Routing Method ...... DYNWAVE
  Surcharge Method ......... EXTRAN
  Starting Date ............ 08/28/2015 08:00:00
  Ending Date .............. 08/28/2015 16:00:00
  Antecedent Dry Days ...... 8.0
  Report Time Step ......... 00:01:00
  Wet Time Step ............ 00:01:00
  Dry Time Step ............ 00:01:00
  Routing Time Step ........ 30.00 sec
  Variable Time Step ....... YES
  Maximum Trials ........... 8
  Number of Threads ........ 4
  Head Tolerance ........... 0.001500 m
  
  
  **************************        Volume         Depth
  Runoff Quantity Continuity     hectare-m            mm
  **************************     ---------       -------
  Initial LID Storage ......         0.049         1.488
  Total Precipitation ......         1.632        49.204
  Evaporation Loss .........         0.000         0.000
  Infiltration Loss ........         0.072         2.182
  Surface Runoff ...........         1.191        35.891
  Final Storage ............         0.419        12.639
  Continuity Error (%) .....        -0.039
  
  
  **************************        Volume        Volume
  Flow Routing Continuity        hectare-m      10^6 ltr
  **************************     ---------     ---------
  Dry Weather Inflow .......         0.602         6.020
  Wet Weather Inflow .......         1.189        11.895
  Groundwater Inflow .......         0.000         0.000
  RDII Inflow ..............         0.000         0.000
  External Inflow ..........         0.105         1.045
  External Outflow .........         1.671        16.714
  Flooding Loss ............         0.200         2.001
  Evaporation Loss .........         0.000         0.000
  Exfiltration Loss ........         0.000         0.000
  Initial Stored Volume ....         0.303         3.031
  Final Stored Volume ......         0.335         3.347
  Continuity Error (%) .....        -0.321
  
  
  *************************
  Highest Continuity Errors
  *************************
  Node YS02001583 (-15.14%)
  Node YS02001884 (5.13%)
  Node YS02001774 (1.41%)
  Node WS02006249 (1.00%)
  
  
  ***************************
  Time-Step Critical Elements
  ***************************
  Link WS02004404WS02004405 (37.46%)
  Link WS02006238WS02006235 (27.31%)
  Link WS02006252WS02006251 (9.04%)
  Link YS02001791YS02001793 (6.08%)
  Link WS02003066WSF200 (4.36%)
  
  
  ********************************
  Highest Flow Instability Indexes
  ********************************
  Link WS02006113WS02006111 (27)
  Link WS02004404WS02004405 (22)
  Link WS02006252WS02006251 (20)
  Link WS02004403WS02004404 (20)
  Link WS02006238WS02006235 (19)
  
  
  *********************************
  Most Frequent Nonconverging Nodes
  *********************************
  Node CC-1 (11.81%)
  Node CC-2 (11.81%)
  Node JK-1 (11.81%)
  Node JK-2 (11.81%)
  Node WSC (11.81%)
  
  
  *************************
  Routing Time Step Summary
  *************************
  Minimum Time Step           :     0.01 sec
  Average Time Step           :     3.52 sec
  Maximum Time Step           :     7.04 sec
  % of Time in Steady State   :     0.00
  Average Iterations per Step :     3.16
  % of Steps Not Converging   :    11.81
  Time Step Frequencies       :
     30.000 - 13.228 sec      :     0.00 %
     13.228 -  5.833 sec      :    22.27 %
      5.833 -  2.572 sec      :    35.90 %
      2.572 -  1.134 sec      :    30.77 %
      1.134 -  0.500 sec      :    11.06 %
  
  
  ***************************
  Subcatchment Runoff Summary
  ***************************
  
  ------------------------------------------------------------------------------------------------------------------------------
                            Total      Total      Total      Total     Imperv       Perv      Total       Total     Peak  Runoff
                           Precip      Runon       Evap      Infil     Runoff     Runoff     Runoff      Runoff   Runoff   Coeff
  Subcatchment                 mm         mm         mm         mm         mm         mm         mm    10^6 ltr      LPS
  ------------------------------------------------------------------------------------------------------------------------------
  sub60                     49.20       0.00       0.00       1.33      32.50       3.23      35.72        0.47   332.19   0.726
  sub61                     49.20       0.00       0.00       2.03      32.47       4.81      37.28        0.68   477.04   0.758
  sub62                     49.20       0.00       0.00       0.90      34.61       2.19      36.80        1.01   649.22   0.748
  sub63                     49.20       0.00       0.00       3.68      27.81       8.00      35.81        0.81   513.85   0.728
  sub64                     49.20       0.00       0.00       1.77      31.66       3.98      35.64        0.86   511.48   0.724
  sub65                     49.20       0.00       0.00       1.63      34.16       3.63      37.80        1.04   589.34   0.768
  sub66                     49.20       0.00       0.00       4.23      26.88       7.09      33.96        1.58   721.27   0.690
  sub67                     49.20       0.00       0.00       0.91      35.49       2.27      37.76        0.70   531.95   0.767
  sub68                     49.20       0.00       0.00       1.56      31.34       3.69      35.03        0.96   648.60   0.712
  sub69                     49.20       0.00       0.00       1.39      33.07       4.46      37.53        1.39   779.16   0.763
  sub70                     49.20       0.00       0.00       4.58      26.48       9.12      35.60        1.03   419.26   0.724
  sub71                     49.20       0.00       0.00       0.83      31.44       1.98      33.42        0.87   524.97   0.679
  sub72                     49.20       0.00       0.00       0.79      33.95       1.84      35.79        0.49   261.51   0.727
  

  ***********************
  LID Performance Summary
  ***********************

  --------------------------------------------------------------------------------------------------------------------
                                         Total      Evap     Infil   Surface    Drain    Initial     Final  Continuity
                                        Inflow      Loss      Loss   Outflow   Outflow   Storage   Storage       Error
  Subcatchment      LID Control             mm        mm        mm        mm        mm        mm        mm           %
  --------------------------------------------------------------------------------------------------------------------
  sub60             GreenRoof            49.20      0.00      0.00      0.00      0.00      7.05     56.29       -0.06
  sub61             GreenRoof            49.20      0.00      0.00      0.00      0.00      7.05     56.29       -0.06
  sub62             GreenRoof            49.20      0.00      0.00      0.00      0.00      7.05     56.29       -0.06
  sub63             GreenRoof            49.20      0.00      0.00      0.00      0.00      7.05     56.29       -0.06
  sub64             GreenRoof            49.20      0.00      0.00      0.00      0.00      7.05     56.29       -0.06
  sub65             GreenRoof            49.20      0.00      0.00      0.00      0.00      7.05     56.29       -0.06
  sub66             GreenRoof            49.20      0.00      0.00      0.00      0.00      7.05     56.29       -0.06
  sub67             GreenRoof            49.20      0.00      0.00      0.00      0.00      7.05     56.29       -0.06
  sub68             GreenRoof            49.20      0.00      0.00      0.00      0.00      7.05     56.29       -0.06
  sub69             GreenRoof            49.20      0.00      0.00      0.00      0.00      7.05     56.29       -0.06
  sub70             GreenRoof            49.20      0.00      0.00      0.00      0.00      7.05     56.29       -0.06
  sub71             GreenRoof            49.20      0.00      0.00      0.00      0.00      7.05     56.29       -0.06
  sub72             GreenRoof            49.20      0.00      0.00      0.00      0.00      7.05     56.29       -0.06
  
  ******************
  Node Depth Summary
  ******************
  
  ---------------------------------------------------------------------------------
                                 Average  Maximum  Maximum  Time of Max    Reported
                                   Depth    Depth      HGL   Occurrence   Max Depth
  Node                 Type       Meters   Meters   Meters  days hr:min      Meters
  ---------------------------------------------------------------------------------
  WS02001211           JUNCTION     0.60     0.64     5.48     0  02:35        0.64
  WS02001212           JUNCTION     0.33     0.38     5.45     0  02:34        0.38
  WS02001213           JUNCTION     0.53     0.65     5.41     0  02:16        0.65
  WS02003059           JUNCTION     0.59     0.72     5.40     0  02:17        0.72
  WS02003060           JUNCTION     0.30     0.45     5.39     0  02:16        0.45
  WS02003066           JUNCTION     0.16     0.30     5.85     0  02:14        0.30
  WS02003067           JUNCTION     0.43     0.70     6.02     0  02:14        0.70
  WS02003069           JUNCTION     0.33     0.51     5.10     0  02:15        0.51
  WS02003072           JUNCTION     0.40     0.58     4.95     0  02:34        0.58
  WS02003073           JUNCTION     0.23     0.35     4.41     0  02:35        0.35
  WS02004138           JUNCTION     0.13     0.14     7.39     0  00:29        0.14
  WS02004139           JUNCTION     0.54     0.58     5.49     0  02:36        0.58
  WS02004401           JUNCTION     0.52     0.88     6.88     0  02:22        0.88
  WS02004402           JUNCTION     0.55     0.91     6.87     0  02:40        0.90
  WS02004403           JUNCTION     0.58     0.92     6.85     0  02:40        0.92
  WS02004404           JUNCTION     0.65     1.04     6.89     0  02:05        1.02
  WS02004405           JUNCTION     0.64     0.97     6.82     0  02:05        0.97
  WS02004406           JUNCTION     0.65     0.96     6.79     0  02:12        0.96
  WS02004407           JUNCTION     0.13     0.30     6.61     0  02:12        0.30
  WS02004409           JUNCTION     0.30     0.67     6.44     0  02:12        0.67
  WS02004410           JUNCTION     0.33     0.68     6.40     0  02:13        0.68
  WS02004411           JUNCTION     0.36     0.69     6.37     0  02:13        0.69
  WS02004412           JUNCTION     0.38     0.70     6.34     0  02:13        0.70
  WS02004413           JUNCTION     0.54     0.86     6.33     0  02:14        0.86
  WS02006109           JUNCTION     0.57     1.06     7.68     0  01:47        0.98
  WS02006110           JUNCTION     0.57     1.04     7.63     0  01:47        0.93
  WS02006111           JUNCTION     0.14     0.29     6.99     0  02:08        0.29
  WS02006112           JUNCTION     0.66     1.09     6.97     0  02:05        1.07
  WS02006113           JUNCTION     0.21     0.46     7.35     0  01:49        0.45
  WS02006115           JUNCTION     0.40     0.78     6.91     0  02:08        0.78
  WS02006116           JUNCTION     0.49     0.86     6.90     0  02:08        0.86
  WS02006228           JUNCTION     0.55     1.09     7.74     0  01:47        1.02
  WS02006229           JUNCTION     0.53     1.11     7.80     0  01:47        1.05
  WS02006230           JUNCTION     0.52     1.25     7.99     0  01:47        1.14
  WS02006231           JUNCTION     0.34     1.25     8.37     0  02:40        0.88
  WS02006232           JUNCTION     0.46     1.38     8.42     0  02:40        1.07
  WS02006234           JUNCTION     0.39     1.75     8.91     0  02:40        1.08
  WS02006235           JUNCTION     0.43     1.57     8.74     0  02:40        1.16
  WS02006238           JUNCTION     0.46     1.63     8.77     0  02:40        1.19
  WS02006239           JUNCTION     0.41     1.54     8.75     0  02:40        1.21
  WS02006240           JUNCTION     0.39     1.49     8.78     0  02:40        1.15
  WS02006242           JUNCTION     0.43     1.51     8.78     0  02:40        1.22
  WS02006243           JUNCTION     0.36     1.33     8.75     0  02:40        1.14
  WS02006245           JUNCTION     0.36     1.26     8.74     0  02:40        1.14
  WS02006247           JUNCTION     0.37     1.23     8.73     0  02:40        1.14
  WS02006248           JUNCTION     0.35     1.10     8.69     0  02:40        1.08
  WS02006249           JUNCTION     0.37     1.09     8.69     0  01:46        1.09
  WS02006251           JUNCTION     0.36     1.36     9.03     0  01:46        1.12
  WS02006252           JUNCTION     0.25     1.50     9.74     0  00:00        0.69
  WS02006256           JUNCTION     1.06     2.35     9.28     0  00:00        2.35
  WSF200               JUNCTION     0.13     0.31     5.54     0  02:16        0.31
  YS02001580           JUNCTION     0.10     1.05     9.59     0  01:37        0.78
  YS02001583           JUNCTION     0.14     1.14     9.64     0  01:37        0.82
  YS02001586           JUNCTION     0.22     1.13     9.30     0  01:36        1.13
  YS02001590           JUNCTION     0.32     1.38     9.24     0  01:37        1.37
  YS02001593           JUNCTION     0.25     1.32     9.19     0  01:36        1.29
  YS02001596           JUNCTION     0.34     1.68     9.09     0  01:37        1.65
  YS02001600           JUNCTION     0.42     1.87     9.00     0  01:36        1.86
  YS02001601           JUNCTION     0.60     2.06     8.90     0  01:35        2.06
  YS02001602           JUNCTION     0.51     1.87     8.77     0  01:37        1.87
  YS02001605           JUNCTION     0.47     1.78     8.68     0  01:37        1.78
  YS02001607           JUNCTION     0.46     1.68     8.53     0  01:37        1.65
  YS02001610           JUNCTION     0.50     1.68     8.48     0  01:37        1.68
  YS02001613           JUNCTION     0.46     1.70     8.54     0  01:37        1.69
  YS02001616           JUNCTION     0.39     1.61     8.52     0  01:37        1.61
  YS02001619           JUNCTION     0.37     1.61     8.54     0  01:37        1.60
  YS02001622           JUNCTION     0.36     1.59     8.49     0  01:37        1.59
  YS02001625           JUNCTION     0.62     1.78     8.38     0  01:37        1.78
  YS02001629           JUNCTION     0.49     1.85     8.40     0  01:37        1.85
  YS02001633           JUNCTION     0.56     2.07     8.52     0  01:39        1.96
  YS02001641           JUNCTION     0.54     1.99     8.43     0  01:39        1.94
  YS02001644           JUNCTION     0.53     1.92     8.35     0  01:39        1.80
  YS02001647           JUNCTION     0.31     1.79     8.40     0  01:39        1.51
  YS02001649           JUNCTION     0.35     2.01     8.40     0  01:39        1.62
  YS02001652           JUNCTION     0.24     2.16     8.76     0  01:39        1.43
  YS02001655           JUNCTION     0.18     2.20     9.05     0  01:39        1.21
  YS02001658           JUNCTION     0.12     1.94     9.08     0  01:41        0.94
  YS02001661           JUNCTION     0.14     0.74     8.15     0  01:41        0.74
  YS02001664           JUNCTION     0.06     0.27     8.20     0  01:39        0.27
  YS02001745           JUNCTION     0.05     0.49     8.01     0  01:40        0.49
  YS02001748           JUNCTION     0.11     0.90     7.98     0  01:41        0.82
  YS02001751           JUNCTION     0.14     2.20     9.08     0  01:40        0.99
  YS02001754           JUNCTION     0.21     2.20     8.81     0  01:40        1.25
  YS02001757           JUNCTION     0.36     1.95     8.21     0  01:40        1.58
  YS02001759           JUNCTION     0.30     1.81     8.18     0  01:40        1.55
  YS02001762           JUNCTION     0.30     1.87     8.27     0  01:39        1.56
  YS02001765           JUNCTION     0.28     1.92     8.37     0  01:39        1.54
  YS02001767           JUNCTION     0.28     2.03     8.52     0  01:39        1.54
  YS02001770           JUNCTION     0.29     1.95     8.44     0  01:39        1.57
  YS02001774           JUNCTION     0.35     2.01     8.43     0  01:40        1.67
  YS02001779           JUNCTION     0.19     1.68     8.37     0  01:39        1.44
  YS02001783           JUNCTION     0.26     1.66     7.80     0  01:39        1.22
  YS02001784           JUNCTION     0.28     1.35     7.42     0  01:39        1.09
  YS02001786           JUNCTION     0.23     1.07     7.10     0  01:39        0.86
  YS02001788           JUNCTION     0.17     0.62     6.59     0  01:40        0.61
  YS02001790           JUNCTION     0.20     0.72     6.36     0  01:43        0.72
  YS02001791           JUNCTION     0.13     0.44     5.91     0  01:44        0.43
  YS02001793           JUNCTION     0.07     0.30     5.13     0  01:40        0.27
  YS02001882           JUNCTION     0.33     1.77     8.48     0  01:38        1.58
  YS02001884           JUNCTION     0.42     1.84     8.46     0  01:38        1.69
  YS02001887           JUNCTION     0.49     1.86     8.40     0  01:38        1.75
  YS02001890           JUNCTION     0.52     1.81     8.32     0  01:38        1.79
  YS02001895           JUNCTION     0.30     1.67     8.42     0  01:38        1.55
  YS02001898           JUNCTION     0.31     1.68     8.41     0  01:38        1.56
  YS02001901           JUNCTION     0.42     1.69     8.30     0  01:39        1.68
  YS02001904           JUNCTION     0.40     1.65     8.28     0  01:39        1.64
  YS02001907           JUNCTION     0.71     1.96     8.25     0  01:38        1.96
  YS02001910           JUNCTION     0.51     1.98     8.48     0  01:39        1.96
  YS02001915           JUNCTION     0.33     1.93     8.65     0  01:39        1.92
  YS02001918           JUNCTION     0.18     1.81     8.88     0  01:38        1.81
  YS02001920           JUNCTION     0.26     2.11     9.11     0  01:39        1.62
  YS02001923           JUNCTION     0.13     2.03     9.29     0  01:39        1.42
  YS02001926           JUNCTION     0.17     1.90     9.35     0  01:39        1.24
  YS02001929           JUNCTION     0.09     1.78     9.47     0  01:39        1.21
  YS02006553           JUNCTION     0.71     2.08     8.37     0  01:39        1.97
  YS02006556           JUNCTION     0.68     2.19     8.50     0  01:39        1.92
  YS02006558           JUNCTION     0.73     2.26     8.53     0  01:39        1.94
  YS02006561           JUNCTION     0.16     1.52     8.18     0  01:39        0.86
  YS02163301           JUNCTION     0.51     1.95     8.47     0  01:39        1.88
  YS02163601           JUNCTION     0.60     2.08     8.48     0  01:39        2.03
  YS02164001           JUNCTION     0.53     2.01     8.47     0  01:39        1.97
  CC-1                 OUTFALL      0.00     0.00     0.00     0  00:00        0.00
  CC-2                 OUTFALL      0.00     0.00     0.00     0  00:00        0.00
  JK-1                 OUTFALL      0.00     0.00     0.00     0  00:00        0.00
  JK-2                 OUTFALL      0.00     0.00     0.00     0  00:00        0.00
  WSC                  OUTFALL      0.23     0.35     1.02     0  02:35        0.35
  CC-storage           STORAGE      0.76     1.45     6.95     0  02:02        1.45
  JK-storage           STORAGE      2.97     4.23     5.03     0  01:45        4.22
  XR-storage           STORAGE      7.85     9.26     7.26     0  08:00        9.26
  
  
  *******************
  Node Inflow Summary
  *******************
  
  -------------------------------------------------------------------------------------------------
                                  Maximum  Maximum                  Lateral       Total        Flow
                                  Lateral    Total  Time of Max      Inflow      Inflow     Balance
                                   Inflow   Inflow   Occurrence      Volume      Volume       Error
  Node                 Type           LPS      LPS  days hr:min    10^6 ltr    10^6 ltr     Percent
  -------------------------------------------------------------------------------------------------
  WS02001211           JUNCTION      7.35   200.09     0  02:49       0.212        5.44       0.611
  WS02001212           JUNCTION      0.00   202.35     0  02:49           0        5.41       0.290
  WS02001213           JUNCTION      0.00   204.01     0  02:48           0        5.39       0.335
  WS02003059           JUNCTION      0.00   207.85     0  02:47           0        5.38       0.601
  WS02003060           JUNCTION     16.53   753.97     0  02:16       0.476        8.88       0.173
  WS02003066           JUNCTION      0.00   539.33     0  02:14           0        3.05       0.058
  WS02003067           JUNCTION      0.00   539.25     0  02:14           0        3.06       0.156
  WS02003069           JUNCTION      0.32   753.07     0  02:15     0.00922        8.86       0.182
  WS02003072           JUNCTION      0.00   752.78     0  02:34           0        8.85       0.247
  WS02003073           JUNCTION      1.82   754.50     0  02:34      0.0524        8.88       0.257
  WS02004138           JUNCTION      0.00   380.00     0  00:00           0        5.25       0.053
  WS02004139           JUNCTION      0.32   191.16     0  00:29     0.00924        5.26       0.509
  WS02004401           JUNCTION      0.00   541.63     0  02:06           0        3.17       0.352
  WS02004402           JUNCTION      0.00   541.16     0  02:37           0        3.16       0.355
  WS02004403           JUNCTION      0.00   543.70     0  02:13           0        3.15       0.341
  WS02004404           JUNCTION      0.16   558.85     0  02:05     0.00467        3.14       0.194
  WS02004405           JUNCTION      0.04   604.52     0  02:12      0.0011        3.14       0.390
  WS02004406           JUNCTION      0.00   549.52     0  02:05           0        3.12       0.706
  WS02004407           JUNCTION      0.00   541.47     0  02:12           0         3.1       0.057
  WS02004409           JUNCTION      0.00   540.86     0  02:12           0         3.1       0.131
  WS02004410           JUNCTION      0.00   540.30     0  02:12           0         3.1       0.190
  WS02004411           JUNCTION      0.00   540.02     0  02:13           0        3.09       0.228
  WS02004412           JUNCTION      0.00   539.80     0  02:13           0        3.08       0.292
  WS02004413           JUNCTION      0.00   539.75     0  02:13           0        3.07       0.500
  WS02006109           JUNCTION      1.23   549.70     0  01:47      0.0354        3.22       0.277
  WS02006110           JUNCTION      0.00   550.73     0  01:47           0        3.21       0.219
  WS02006111           JUNCTION      0.00   561.27     0  01:49           0         3.2       0.036
  WS02006112           JUNCTION      0.00   542.24     0  02:08           0         3.2       0.581
  WS02006113           JUNCTION      0.00   565.47     0  01:48           0         3.2       0.060
  WS02006115           JUNCTION      0.00   546.70     0  01:58           0        3.18       0.237
  WS02006116           JUNCTION      0.00   540.52     0  02:04           0        3.17       0.094
  WS02006228           JUNCTION      0.00   549.34     0  01:47           0        3.19       0.134
  WS02006229           JUNCTION      0.00   548.38     0  01:47           0        3.19       0.197
  WS02006230           JUNCTION     10.28   589.61     0  02:40       0.296         3.2       0.149
  WS02006231           JUNCTION      0.00   566.06     0  02:40           0         2.9      -0.051
  WS02006232           JUNCTION      0.00   563.93     0  02:40           0        2.91       0.453
  WS02006234           JUNCTION      0.00   559.10     0  02:40           0         2.9      -0.326
  WS02006235           JUNCTION      0.00   558.06     0  01:47           0        3.01       0.400
  WS02006238           JUNCTION      0.00   424.22     0  02:41           0        2.03      -0.157
  WS02006239           JUNCTION      0.00   425.72     0  02:41           0        1.98      -0.061
  WS02006240           JUNCTION      0.00   423.82     0  02:41           0        1.93      -0.062
  WS02006242           JUNCTION      0.00   423.89     0  02:41           0        1.89      -0.132
  WS02006243           JUNCTION      0.00   424.42     0  02:40           0        1.86      -0.204
  WS02006245           JUNCTION      0.00   425.24     0  02:40           0        1.87       0.694
  WS02006247           JUNCTION      0.00   425.41     0  02:41           0        1.86      -0.145
  WS02006248           JUNCTION      0.00   426.64     0  02:41           0        1.86      -0.392
  WS02006249           JUNCTION      0.00   468.25     0  03:05           0         2.1       1.013
  WS02006251           JUNCTION      0.08   406.13     0  01:46     0.00222         2.1       0.002
  WS02006252           JUNCTION      0.00   400.00     0  00:00           0        2.09      -0.471
  WS02006256           JUNCTION      0.00   300.00     0  00:00           0        1.46      -0.689
  WSF200               JUNCTION      0.00   539.42     0  02:14           0        3.05       0.035
  YS02001580           JUNCTION      0.00   247.38     0  01:37           0     0.00455      -9.816
  YS02001583           JUNCTION      0.00   256.28     0  01:36           0      0.0146     -13.151
  YS02001586           JUNCTION    419.26   419.27     0  01:42        1.03        1.04       0.140
  YS02001590           JUNCTION      0.00   317.95     0  01:42           0       0.966      -0.063
  YS02001593           JUNCTION      0.00   318.15     0  01:47           0       0.967       0.049
  YS02001596           JUNCTION      0.00   317.92     0  01:47           0       0.966      -0.031
  YS02001600           JUNCTION      0.00   318.02     0  01:47           0       0.966      -0.012
  YS02001601           JUNCTION    779.16  1096.50     0  01:40        1.39        2.35       0.029
  YS02001602           JUNCTION      0.00   593.77     0  01:37           0        1.76       0.014
  YS02001605           JUNCTION      0.00   593.81     0  01:37           0        1.69       0.007
  YS02001607           JUNCTION      0.00   593.60     0  01:37           0        1.69       0.062
  YS02001610           JUNCTION      0.00   561.65     0  01:37           0        1.69       0.118
  YS02001613           JUNCTION      0.00   529.88     0  01:37           0        1.53       0.072
  YS02001616           JUNCTION      0.00   480.18     0  02:02           0        1.53       0.003
  YS02001619           JUNCTION    721.27   936.81     0  01:37        1.58        3.11      -0.023
  YS02001622           JUNCTION      0.00   852.83     0  01:37           0        3.11      -0.005
  YS02001625           JUNCTION      0.00   836.20     0  01:57           0        3.11       0.268
  YS02001629           JUNCTION      0.00   836.93     0  01:57           0        2.87       0.009
  YS02001633           JUNCTION    589.54  1353.86     0  01:38        1.05        3.91       0.082
  YS02001641           JUNCTION      0.00  1349.00     0  01:38           0        3.92       0.064
  YS02001644           JUNCTION    511.51  1842.02     0  01:38       0.856        4.77       0.061
  YS02001647           JUNCTION      0.00  1844.95     0  01:38           0        4.75       0.002
  YS02001649           JUNCTION      0.00  2174.08     0  01:39           0        5.57       0.003
  YS02001652           JUNCTION      0.00   557.65     0  01:42           0       0.817      -0.303
  YS02001655           JUNCTION      0.15   763.47     0  01:39     0.00443       0.817      -0.102
  YS02001658           JUNCTION      0.00   673.79     0  01:46           0       0.812      -0.046
  YS02001661           JUNCTION      0.00   513.43     0  01:39           0       0.812       0.057
  YS02001664           JUNCTION    513.85   513.85     0  01:39       0.812       0.812      -0.015
  YS02001745           JUNCTION    332.19   332.19     0  01:39       0.469       0.469       0.306
  YS02001748           JUNCTION      0.04   536.77     0  01:40      0.0013       0.472      -0.401
  YS02001751           JUNCTION      0.01   456.53     0  01:40    0.000317       0.479       0.205
  YS02001754           JUNCTION      0.26   431.81     0  01:41     0.00749       0.489      -0.384
  YS02001757           JUNCTION      0.00  3216.67     0  01:41           0        7.77       0.059
  YS02001759           JUNCTION    477.08  1138.97     0  01:39       0.684        1.71      -0.029
  YS02001762           JUNCTION      0.00   670.91     0  01:39           0        1.02      -0.005
  YS02001765           JUNCTION      0.00   667.82     0  01:39           0        1.02      -0.004
  YS02001767           JUNCTION      0.54   665.65     0  01:39      0.0154        1.02       0.005
  YS02001770           JUNCTION    649.37   662.34     0  01:39        1.01        1.05      -0.026
  YS02001774           JUNCTION      0.00   439.04     0  01:39           0      0.0644       1.430
  YS02001779           JUNCTION      0.01   439.92     0  01:39    0.000144      0.0218      -2.032
  YS02001783           JUNCTION      0.00  1149.25     0  01:39           0        2.85       0.006
  YS02001784           JUNCTION      1.06  1150.63     0  01:39      0.0305        2.89       0.016
  YS02001786           JUNCTION      0.06  1150.56     0  01:39     0.00162        2.89       0.019
  YS02001788           JUNCTION      0.07  1154.26     0  01:39     0.00204        2.89       0.011
  YS02001790           JUNCTION      0.15  1163.33     0  01:40     0.00446        2.89       0.017
  YS02001791           JUNCTION      0.00  1277.37     0  01:43           0        2.89      -0.011
  YS02001793           JUNCTION      0.00  1227.79     0  01:44           0        2.89       0.010
  YS02001882           JUNCTION      0.00    84.39     0  01:38           0      0.0128       4.605
  YS02001884           JUNCTION      0.00   116.74     0  01:37           0      0.0485       5.410
  YS02001887           JUNCTION    532.40   542.56     0  01:38       0.714       0.747       0.595
  YS02001890           JUNCTION      0.00   547.92     0  01:38           0       0.707       0.703
  YS02001895           JUNCTION      0.00   553.55     0  01:38           0       0.701       0.221
  YS02001898           JUNCTION      0.00   558.14     0  01:38           0       0.699       0.044
  YS02001901           JUNCTION      0.00   566.68     0  01:38           0       0.702       0.464
  YS02001904           JUNCTION      0.00   568.24     0  01:38           0       0.715       0.365
  YS02001907           JUNCTION      0.00  1440.48     0  01:40           0        2.16       0.809
  YS02001910           JUNCTION      0.00   969.01     0  01:40           0        1.45       0.503
  YS02001915           JUNCTION    524.99   968.91     0  01:40       0.874         1.5       0.104
  YS02001918           JUNCTION      0.00   603.61     0  01:38           0       0.662       0.018
  YS02001920           JUNCTION      2.87   542.94     0  01:39      0.0827       0.634       0.135
  YS02001923           JUNCTION      0.04   646.93     0  01:38     0.00109       0.533      -0.107
  YS02001926           JUNCTION      0.05   961.41     0  01:39      0.0015       0.513      -0.030
  YS02001929           JUNCTION    261.51   768.60     0  01:39       0.492       0.498      -0.092
  YS02006553           JUNCTION      0.00   788.43     0  01:50           0        1.92       0.615
  YS02006556           JUNCTION      0.00   788.86     0  01:50           0        1.93       0.410
  YS02006558           JUNCTION    649.48  1177.29     0  01:39       0.988        2.89       0.125
  YS02006561           JUNCTION      0.00  1177.29     0  01:39           0        2.85      -0.004
  YS02163301           JUNCTION      0.00   838.42     0  01:57           0        2.87       0.036
  YS02163601           JUNCTION      0.11  1352.43     0  01:38     0.00317        3.91       0.117
  YS02164001           JUNCTION      0.00  1351.15     0  01:38           0        3.91       0.053
  CC-1                 OUTFALL       0.00   683.00     0  00:00           0        3.35       0.000
  CC-2                 OUTFALL       0.00   683.00     0  00:00           0        3.08       0.000
  JK-1                 OUTFALL       0.00  1000.00     0  00:00           0        1.38       0.000
  JK-2                 OUTFALL       0.00  1000.00     0  00:00           0      0.0484       0.000
  WSC                  OUTFALL       0.00   754.38     0  02:35           0        8.85       0.000
  CC-storage           STORAGE       0.00  3217.39     0  01:41           0        9.99      -0.282
  JK-storage           STORAGE       0.00  1207.14     0  01:44           0        3.04       0.001
  XR-storage           STORAGE     200.00   200.00     0  00:00        5.76        6.36       0.001
  
  
  **********************
  Node Surcharge Summary
  **********************
  
  Surcharging occurs when water rises above the top of the highest conduit.
  ---------------------------------------------------------------------
                                               Max. Height   Min. Depth
                                   Hours       Above Crown    Below Rim
  Node                 Type      Surcharged         Meters       Meters
  ---------------------------------------------------------------------
  WS02004404           JUNCTION        0.07          0.044        2.736
  WS02006109           JUNCTION        1.19          0.238        1.582
  WS02006110           JUNCTION        0.86          0.132        1.718
  WS02006112           JUNCTION        0.82          0.086        1.594
  WS02006228           JUNCTION        1.19          0.259        1.941
  WS02006229           JUNCTION        1.19          0.311        2.139
  WS02006230           JUNCTION        0.86          0.168        1.402
  WS02006231           JUNCTION        0.88          0.538        0.992
  WS02006232           JUNCTION        1.22          0.676        0.804
  WS02006234           JUNCTION        0.95          1.032        0.208
  WS02006235           JUNCTION        1.19          0.864        0.426
  WS02006238           JUNCTION        1.21          0.905        0.525
  WS02006239           JUNCTION        1.19          0.798        0.492
  WS02006240           JUNCTION        1.19          0.778        0.612
  WS02006242           JUNCTION        1.21          0.783        0.037
  WS02006243           JUNCTION        1.19          0.624        0.146
  WS02006245           JUNCTION        1.18          0.546        0.304
  WS02006247           JUNCTION        1.18          0.517        0.243
  WS02006248           JUNCTION        1.18          0.380        0.000
  WS02006249           JUNCTION        1.17          0.390        0.000
  WS02006251           JUNCTION        0.90          0.332        0.848
  WS02006252           JUNCTION        1.42          1.100        0.000
  WS02006256           JUNCTION        4.26          2.050        0.000
  YS02001580           JUNCTION        0.36          0.450        0.000
  YS02001583           JUNCTION        0.36          0.500        0.000
  YS02001586           JUNCTION        0.49          0.510        0.000
  YS02001590           JUNCTION        0.55          0.733        0.017
  YS02001593           JUNCTION        0.55          0.704        0.136
  YS02001596           JUNCTION        0.63          0.946        0.124
  YS02001600           JUNCTION        0.73          1.190        0.000
  YS02001601           JUNCTION        1.07          1.440        0.000
  YS02001602           JUNCTION        0.94          1.270        0.000
  YS02001605           JUNCTION        0.89          1.180        0.000
  YS02001607           JUNCTION        0.51          0.680        0.000
  YS02001610           JUNCTION        0.53          0.680        0.000
  YS02001613           JUNCTION        0.50          0.700        0.000
  YS02001616           JUNCTION        0.47          0.610        0.000
  YS02001619           JUNCTION        0.45          0.610        0.000
  YS02001622           JUNCTION        0.45          0.590        0.030
  YS02001625           JUNCTION        0.60          0.780        0.000
  YS02001629           JUNCTION        0.41          0.470        0.000
  YS02001633           JUNCTION        0.61          1.047        0.013
  YS02001641           JUNCTION        0.56          0.992        0.108
  YS02001644           JUNCTION        0.53          0.920        0.000
  YS02001647           JUNCTION        0.37          0.787        0.113
  YS02001649           JUNCTION        0.46          1.011        0.039
  YS02001652           JUNCTION        0.29          1.130        0.000
  YS02001655           JUNCTION        0.13          1.200        0.000
  YS02001658           JUNCTION        0.01          0.943        0.357
  YS02001751           JUNCTION        0.02          1.200        0.000
  YS02001754           JUNCTION        0.17          1.150        0.000
  YS02001757           JUNCTION        0.51          0.954        0.256
  YS02001759           JUNCTION        0.41          0.813        0.397
  YS02001762           JUNCTION        0.38          0.874        0.276
  YS02001765           JUNCTION        0.34          0.923        0.177
  YS02001767           JUNCTION        0.32          1.030        0.000
  YS02001770           JUNCTION        0.29          0.920        0.000
  YS02001774           JUNCTION        0.37          1.006        0.044
  YS02001779           JUNCTION        0.17          0.680        0.000
  YS02001783           JUNCTION        0.33          0.863        0.737
  YS02001784           JUNCTION        0.31          0.550        0.940
  YS02001786           JUNCTION        0.22          0.274        1.156
  YS02001882           JUNCTION        0.29          0.768        0.062
  YS02001884           JUNCTION        0.30          0.781        0.089
  YS02001887           JUNCTION        0.33          0.815        0.135
  YS02001890           JUNCTION        0.34          0.760        0.000
  YS02001895           JUNCTION        0.28          0.673        0.077
  YS02001898           JUNCTION        0.27          0.648        0.092
  YS02001901           JUNCTION        0.31          0.695        0.175
  YS02001904           JUNCTION        0.31          0.647        0.203
  YS02001907           JUNCTION        0.48          0.950        0.000
  YS02001910           JUNCTION        0.36          0.977        0.123
  YS02001915           JUNCTION        0.29          0.929        0.071
  YS02001918           JUNCTION        0.21          0.810        0.000
  YS02001920           JUNCTION        0.22          1.106        0.034
  YS02001923           JUNCTION        0.01          0.820        0.000
  YS02001926           JUNCTION        0.01          0.900        0.000
  YS02001929           JUNCTION        0.01          0.780        0.000
  YS02006553           JUNCTION        0.49          1.085        0.105
  YS02006556           JUNCTION        0.42          1.152        0.198
  YS02006558           JUNCTION        0.41          1.165        0.235
  YS02006561           JUNCTION        0.18          0.719        0.431
  YS02163301           JUNCTION        0.60          0.948        0.082
  YS02163601           JUNCTION        0.63          1.080        0.000
  YS02164001           JUNCTION        0.57          1.014        0.086
  
  
  *********************
  Node Flooding Summary
  *********************
  
  Flooding refers to all water that overflows a node, whether it ponds or not.
  --------------------------------------------------------------------------
                                                             Total   Maximum
                                 Maximum   Time of Max       Flood    Ponded
                        Hours       Rate    Occurrence      Volume     Depth
  Node                 Flooded       LPS   days hr:min    10^6 ltr    Meters
  --------------------------------------------------------------------------
  WS02006248              0.01     11.70      0  02:40       0.000     0.000
  WS02006249              0.90     93.51      0  01:46       0.225     0.000
  WS02006252              0.01    245.63      0  00:00       0.000     0.000
  WS02006256              1.35    293.19      0  00:00       0.418     0.000
  YS02001580              0.01    220.52      0  01:37       0.001     0.000
  YS02001583              0.01    192.54      0  01:37       0.000     0.000
  YS02001586              0.25    172.35      0  01:37       0.062     0.000
  YS02001600              0.01      8.14      0  01:36       0.000     0.000
  YS02001601              0.43    698.64      0  01:40       0.596     0.000
  YS02001602              0.32     61.99      0  01:49       0.063     0.000
  YS02001605              0.01     14.43      0  01:37       0.000     0.000
  YS02001607              0.01    190.20      0  01:37       0.001     0.000
  YS02001610              0.27    249.69      0  01:37       0.163     0.000
  YS02001613              0.01    197.85      0  01:37       0.001     0.000
  YS02001616              0.01     79.79      0  01:37       0.001     0.000
  YS02001619              0.01     83.00      0  01:37       0.000     0.000
  YS02001625              0.24    572.38      0  01:42       0.233     0.000
  YS02001629              0.01    102.97      0  01:37       0.001     0.000
  YS02001644              0.01     36.92      0  01:39       0.000     0.000
  YS02001652              0.01     91.22      0  01:39       0.000     0.000
  YS02001655              0.01    499.62      0  01:39       0.001     0.000
  YS02001751              0.01    324.36      0  01:40       0.000     0.000
  YS02001754              0.01     82.33      0  01:40       0.000     0.000
  YS02001767              0.01    211.24      0  01:39       0.000     0.000
  YS02001770              0.01    121.57      0  01:39       0.000     0.000
  YS02001779              0.01    422.95      0  01:39       0.004     0.000
  YS02001890              0.01     88.63      0  01:38       0.001     0.000
  YS02001907              0.16    919.06      0  01:40       0.221     0.000
  YS02001918              0.01    133.61      0  01:39       0.002     0.000
  YS02001923              0.01    136.47      0  01:39       0.000     0.000
  YS02001926              0.01    727.52      0  01:39       0.002     0.000
  YS02001929              0.01    537.80      0  01:39       0.003     0.000
  YS02163601              0.01      5.05      0  01:39       0.000     0.000
  
  
  **********************
  Storage Volume Summary
  **********************
  
  ------------------------------------------------------------------------------------------------
                         Average    Avg   Evap  Exfil     Maximum    Max    Time of Max    Maximum
                          Volume   Pcnt   Pcnt   Pcnt      Volume   Pcnt     Occurrence    Outflow
  Storage Unit           1000 m³   Full   Loss   Loss     1000 m³   Full    days hr:min        LPS
  ------------------------------------------------------------------------------------------------
  CC-storage               2.106   32.9    0.0    0.0       4.054   63.2       0  02:02    1783.53
  JK-storage               0.149   51.2    0.0    0.0       0.213   73.0       0  01:45    2300.00
  XR-storage               0.942   65.4    0.0    0.0       1.111   77.2       0  08:00     380.00
  
  
  ***********************
  Outfall Loading Summary
  ***********************
  
  -----------------------------------------------------------
                         Flow       Avg       Max       Total
                         Freq      Flow      Flow      Volume
  Outfall Node           Pcnt       LPS       LPS    10^6 ltr
  -----------------------------------------------------------
  CC-1                  30.69    683.00    683.00       3.347
  CC-2                  28.04    683.00    683.00       3.080
  JK-1                  12.02   1000.00   1000.00       1.383
  JK-2                   0.26   1000.00   1000.00       0.048
  WSC                   99.93    371.85    754.38       8.854
  -----------------------------------------------------------
  System                34.19   3737.85   3366.23      16.714
  
  
  ********************
  Link Flow Summary
  ********************
  
  -----------------------------------------------------------------------------
                                 Maximum  Time of Max   Maximum    Max/    Max/
                                  |Flow|   Occurrence   |Veloc|    Full    Full
  Link                 Type          LPS  days hr:min     m/sec    Flow   Depth
  -----------------------------------------------------------------------------
  1                    CONDUIT    754.38     0  02:35      3.08    0.26    0.35
  WS02001211WS02001212 CONDUIT    202.35     0  02:49      0.54    0.15    0.51
  WS02001212WS02001213 CONDUIT    204.01     0  02:48      1.04    0.31    0.36
  WS02001213WS02003059 CONDUIT    207.85     0  02:47      0.47    0.34    0.67
  WS02003059WS02003060 CONDUIT    212.08     0  02:46      0.67    0.14    0.59
  WS02003060WS02003069 CONDUIT    752.75     0  02:15      1.77    0.29    0.40
  WS02003066WSF200     CONDUIT    539.42     0  02:14      2.74    0.09    0.23
  WS02003067WS02003066 CONDUIT    539.33     0  02:14      1.21    0.17    0.42
  WS02003069WS02003072 CONDUIT    752.78     0  02:34      1.51    0.36    0.45
  WS02003072WS02003073 CONDUIT    752.68     0  02:34      1.60    1.63    0.43
  WS02004138WS02004139 CONDUIT    190.84     0  00:29      2.17    0.04    0.33
  WS02004139WS02001211 CONDUIT    192.75     0  02:49      0.54    0.24    0.47
  WS02004401WS02004402 CONDUIT    541.16     0  02:37      0.97    0.65    0.89
  WS02004402WS02004403 CONDUIT    543.70     0  02:13      0.97    0.78    0.91
  WS02004403WS02004404 CONDUIT    558.68     0  02:05      0.92    0.40    0.96
  WS02004404WS02004405 CONDUIT    604.48     0  02:12      1.08    5.92    0.98
  WS02004405WS02004406 CONDUIT    549.52     0  02:05      0.99    1.08    0.96
  WS02004406WS02004407 CONDUIT    541.47     0  02:12      1.04    0.24    0.63
  WS02004407WS02004409 CONDUIT    540.86     0  02:12      1.60    0.19    0.48
  WS02004409WS02004410 CONDUIT    540.30     0  02:12      1.05    0.70    0.68
  WS02004410WS02004411 CONDUIT    540.02     0  02:13      1.02    0.74    0.69
  WS02004411WS02004412 CONDUIT    539.80     0  02:13      0.98    0.77    0.70
  WS02004412WS02004413 CONDUIT    539.75     0  02:13      0.82    0.36    0.78
  WS02004413WS02003067 CONDUIT    539.25     0  02:14      1.11    0.23    0.59
  WS02006109WS02006110 CONDUIT    550.73     0  01:47      1.10    1.06    1.00
  WS02006110WS02006113 CONDUIT    565.47     0  01:48      1.36    0.51    0.78
  WS02006111WS02006112 CONDUIT    542.24     0  02:08      1.82    0.26    0.67
  WS02006112WS02006115 CONDUIT    546.70     0  01:58      0.88    0.32    0.88
  WS02006113WS02006111 CONDUIT    561.27     0  01:49      2.47    0.67    0.46
  WS02006115WS02006116 CONDUIT    540.52     0  02:04      1.16    0.69    0.79
  WS02006116WS02004401 CONDUIT    541.63     0  02:06      0.99    0.75    0.87
  WS02006228WS02006109 CONDUIT    548.47     0  01:47      1.09    2.40    1.00
  WS02006229WS02006228 CONDUIT    549.34     0  01:47      1.15    1.82    1.00
  WS02006230WS02006229 CONDUIT    548.38     0  01:47      1.42   12.20    1.00
  WS02006231WS02006230 CONDUIT    579.33     0  02:40      1.56    8.79    1.00
  WS02006232WS02006231 CONDUIT    566.06     0  02:40      1.47    1.19    1.00
  WS02006234WS02006232 CONDUIT    563.93     0  02:40      1.47    1.14    1.00
  WS02006235WS02006234 CONDUIT    559.10     0  02:40      1.45    5.90    1.00
  WS02006238WS02006235 CONDUIT    424.60     0  02:41      1.56    0.95    1.00
  WS02006239WS02006238 CONDUIT    424.22     0  02:41      1.11    1.36    1.00
  WS02006240WS02006239 CONDUIT    425.72     0  02:41      1.24    1.34    1.00
  WS02006242WS02006240 CONDUIT    423.82     0  02:41      1.12    1.68    1.00
  WS02006243WS02006242 CONDUIT    423.89     0  02:41      1.39    0.91    1.00
  WS02006245WS02006243 CONDUIT    424.42     0  02:40      1.45    1.26    1.00
  WS02006247WS02006245 CONDUIT    425.24     0  02:40      1.44    3.37    1.00
  WS02006248WS02006247 CONDUIT    425.41     0  02:41      1.45    0.93    1.00
  WS02006249WS02006248 CONDUIT    426.64     0  02:41      1.37    2.34    1.00
  WS02006251WS02006249 CONDUIT    468.25     0  03:05      1.99    1.35    1.00
  WS02006252WS02006251 CONDUIT    406.05     0  01:46     25.11    1.49    1.00
  WS02006256WS02006235 CONDUIT    289.22     0  01:40      4.23    3.06    1.00
  WSF200WS02003060     CONDUIT    539.71     0  02:14      1.76    0.12    0.32
  YS02001580YS02001583 CONDUIT    247.38     0  01:37      1.08    0.96    1.00
  YS02001583YS02001586 CONDUIT    256.28     0  01:36      1.15    0.39    1.00
  YS02001586YS02001590 CONDUIT    317.95     0  01:42      1.35    0.56    1.00
  YS02001590YS02001593 CONDUIT    318.15     0  01:47      1.13    2.00    1.00
  YS02001593YS02001596 CONDUIT    317.92     0  01:47      1.73    0.50    1.00
  YS02001596YS02001600 CONDUIT    318.02     0  01:47      1.19    0.62    1.00
  YS02001600YS02001601 CONDUIT    317.93     0  01:47      1.12    0.55    1.00
  YS02001601YS02001602 CONDUIT    593.77     0  01:37      2.10    2.14    1.00
  YS02001602YS02001605 CONDUIT    593.81     0  01:37      2.10   12.57    1.00
  YS02001605YS02001607 CONDUIT    593.60     0  01:37      2.10    3.26    1.00
  YS02001607YS02001610 CONDUIT    561.65     0  01:37      0.77    0.53    1.00
  YS02001610YS02001613 CONDUIT    529.88     0  01:37      0.71    0.61    1.00
  YS02001613YS02001616 CONDUIT    480.18     0  02:02      0.69    0.41    1.00
  YS02001616YS02001619 CONDUIT    480.93     0  02:02      0.65    0.83    1.00
  YS02001619YS02001622 CONDUIT    852.83     0  01:37      1.43    1.26    1.00
  YS02001622YS02001625 CONDUIT    836.20     0  01:57      1.06    0.45    1.00
  YS02001625YS02001629 CONDUIT    836.93     0  01:57      1.07    0.40    1.00
  YS02001629YS02163301 CONDUIT    838.42     0  01:57      1.07    1.03    1.00
  YS02001633YS02163601 CONDUIT   1352.32     0  01:38      1.72    1.42    1.00
  YS02001641YS02001644 CONDUIT   1351.23     0  01:38      1.72    4.37    1.00
  YS02001644YS02001647 CONDUIT   1844.95     0  01:38      2.35    1.08    1.00
  YS02001647YS02001649 CONDUIT   1855.96     0  01:38      2.36    0.98    1.00
  YS02001649YS02001757 CONDUIT   2171.82     0  01:39      2.77    1.32    1.00
  YS02001652YS02001649 CONDUIT    559.05     0  01:42      0.93    0.28    1.00
  YS02001655YS02001652 CONDUIT    557.65     0  01:42      1.75    0.27    1.00
  YS02001658YS02001655 CONDUIT    763.32     0  01:39      2.14    0.32    1.00
  YS02001661YS02001658 CONDUIT    673.79     0  01:46      2.43    0.26    0.82
  YS02001664YS02001661 CONDUIT    513.43     0  01:39      2.33    0.16    0.50
  YS02001745YS02001748 CONDUIT    456.66     0  01:41      2.27    0.18    0.62
  YS02001748YS02001751 CONDUIT    422.20     0  01:42      1.89    0.21    0.95
  YS02001751YS02001754 CONDUIT    431.55     0  01:41      1.75    0.21    1.00
  YS02001754YS02001757 CONDUIT    432.22     0  01:41      0.71    0.17    1.00
  YS02001757CaochengTiaoxuchi CONDUIT   3217.39     0  01:41      4.11    1.39    1.00
  YS02001759YS02001757 CONDUIT   1140.27     0  01:39      1.45    0.81    1.00
  YS02001762YS02001759 CONDUIT    673.50     0  01:39      0.86    0.78    1.00
  YS02001765YS02001762 CONDUIT    670.91     0  01:39      0.85    0.63    1.00
  YS02001767YS02001765 CONDUIT    667.82     0  01:39      0.92    0.84    1.00
  YS02001770YS02001767 CONDUIT    665.12     0  01:39      1.03    2.63    1.00
  YS02001774YS02001770 CONDUIT    439.04     0  01:39      0.56    0.28    1.00
  YS02001779YS02001774 CONDUIT    439.92     0  01:39      0.56    0.22    1.00
  YS02001783YS02001784 CONDUIT   1149.57     0  01:39      2.29    1.58    1.00
  YS02001784YS02001785 CONDUIT   1150.50     0  01:39      2.29    2.68    1.00
  YS02001786YS02001788 CONDUIT   1154.19     0  01:39      2.49    2.22    0.89
  YS02001788YS02001790 CONDUIT   1163.18     0  01:40      2.70    0.86    0.83
  YS02001790YS02001791 CONDUIT   1277.37     0  01:43      3.42    1.39    0.70
  YS02001791YS02001793 CONDUIT   1227.79     0  01:44      6.49    0.53    0.44
  YS02001793JiankangQianchi CONDUIT   1207.14     0  01:44      2.39    0.10    0.65
  YS02001882YS02001884 CONDUIT     84.39     0  01:38      0.14    0.10    1.00
  YS02001884YS02001887 CONDUIT    116.74     0  01:37      0.16    0.16    1.00
  YS02001887YS02001890 CONDUIT    547.92     0  01:38      0.70    0.94    1.00
  YS02001890YS02001895 CONDUIT    553.55     0  01:38      0.70    0.26    1.00
  YS02001895YS02001898 CONDUIT    558.14     0  01:38      0.71    0.97    1.00
  YS02001898YS02001901 CONDUIT    566.68     0  01:38      0.72    0.37    1.00
  YS02001901YS02001904 CONDUIT    568.24     0  01:38      0.72    0.88    1.00
  YS02001904YS02001907 CONDUIT    569.62     0  01:38      0.73    0.20    1.00
  YS02001907YS02006553 CONDUIT    788.43     0  01:50      0.88    0.93    1.00
  YS02001910YS02001907 CONDUIT    969.01     0  01:40      1.23    0.55    1.00
  YS02001915YS02001910 CONDUIT    969.01     0  01:40      1.23    0.48    1.00
  YS02001918YS02001915 CONDUIT    603.61     0  01:38      0.81    0.33    1.00
  YS02001920YS02001918 CONDUIT    540.07     0  01:39      0.71    0.52    1.00
  YS02001923YS02001920 CONDUIT    547.41     0  01:39      0.92    0.25    1.00
  YS02001926YS02001923 CONDUIT    736.89     0  01:39      1.17    1.05    1.00
  YS02001929YS02001926 CONDUIT    515.11     0  01:39      1.21    0.24    1.00
  YS02006553YS02006556 CONDUIT    788.86     0  01:50      1.00    0.67    1.00
  YS02006556YS02006558 CONDUIT    790.44     0  01:50      1.01    0.62    1.00
  YS02006558YS02006561 CONDUIT   1177.29     0  01:39      4.16    2.60    1.00
  YS02006561YS02001783 CONDUIT   1149.25     0  01:39      2.29    0.60    1.00
  YS02163301YS02001633 CONDUIT    836.91     0  01:57      1.07    0.79    1.00
  YS02163601YS02164001 CONDUIT   1351.15     0  01:38      1.72    1.20    1.00
  YS02164001YS02001641 CONDUIT   1349.00     0  01:38      1.72    1.84    1.00
  CC-R1                PUMP       683.00     0  00:00              1.00
  CC-R2                PUMP       683.00     0  00:00              1.00
  CC-S1                PUMP       200.00     0  00:00              1.00
  CC-S2                PUMP       200.00     0  00:00              1.00
  JK-R1                PUMP      1000.00     0  00:00              1.00
  JK-R2                PUMP      1000.00     0  00:00              1.00
  JK-S                 PUMP       300.00     0  00:00              1.00
  XR-1                 PUMP        95.00     0  00:00              1.00
  XR-2                 PUMP        95.00     0  00:00              1.00
  XR-3                 PUMP        95.00     0  00:00              1.00
  XR-4                 PUMP        95.00     0  00:00              1.00
  
  
  ***************************
  Flow Classification Summary
  ***************************
  
  -------------------------------------------------------------------------------------
                      Adjusted    ---------- Fraction of Time in Flow Class ---------- 
                       /Actual         Up    Down  Sub   Sup   Up    Down  Norm  Inlet 
  Conduit               Length    Dry  Dry   Dry   Crit  Crit  Crit  Crit  Ltd   Ctrl  
  -------------------------------------------------------------------------------------
  1                       1.00   0.00  0.00  0.00  0.00  1.00  0.00  0.00  0.16  0.00
  WS02001211WS02001212    1.00   0.00  0.02  0.00  0.98  0.00  0.00  0.00  0.00  0.00
  WS02001212WS02001213    1.00   0.02  0.00  0.00  0.17  0.00  0.80  0.00  0.00  0.00
  WS02001213WS02003059    1.00   0.00  0.01  0.00  0.99  0.00  0.00  0.00  0.00  0.00
  WS02003059WS02003060    1.00   0.00  0.00  0.00  1.00  0.00  0.00  0.00  0.03  0.00
  WS02003060WS02003069    1.00   0.00  0.00  0.00  0.98  0.02  0.00  0.00  0.65  0.00
  WS02003066WSF200        1.00   0.13  0.00  0.00  0.00  0.87  0.00  0.00  0.76  0.00
  WS02003067WS02003066    1.00   0.10  0.02  0.00  0.88  0.00  0.00  0.00  0.00  0.00
  WS02003069WS02003072    1.00   0.00  0.00  0.00  1.00  0.00  0.00  0.00  0.79  0.00
  WS02003072WS02003073    1.00   0.00  0.00  0.00  0.00  0.00  0.00  1.00  0.00  0.00
  WS02004138WS02004139    1.00   0.00  0.00  0.00  0.97  0.01  0.00  0.02  0.98  0.00
  WS02004139WS02001211    1.00   0.00  0.00  0.00  0.99  0.00  0.00  0.00  0.00  0.00
  WS02004401WS02004402    1.00   0.02  0.00  0.00  0.98  0.00  0.00  0.00  0.00  0.00
  WS02004402WS02004403    1.00   0.02  0.00  0.00  0.97  0.00  0.00  0.00  0.00  0.00
  WS02004403WS02004404    1.00   0.00  0.03  0.00  0.97  0.00  0.00  0.00  0.00  0.00
  WS02004404WS02004405    1.00   0.00  0.00  0.00  1.00  0.00  0.00  0.00  0.01  0.00
  WS02004405WS02004406    1.00   0.00  0.00  0.00  1.00  0.00  0.00  0.00  0.00  0.00
  WS02004406WS02004407    1.00   0.00  0.05  0.00  0.95  0.00  0.00  0.00  0.00  0.00
  WS02004407WS02004409    1.00   0.05  0.00  0.00  0.94  0.01  0.00  0.00  0.94  0.00
  WS02004409WS02004410    1.00   0.05  0.00  0.00  0.95  0.00  0.00  0.00  0.03  0.00
  WS02004410WS02004411    1.00   0.05  0.00  0.00  0.95  0.00  0.00  0.00  0.01  0.00
  WS02004411WS02004412    1.00   0.05  0.00  0.00  0.95  0.00  0.00  0.00  0.00  0.00
  WS02004412WS02004413    1.00   0.05  0.00  0.00  0.94  0.00  0.00  0.00  0.01  0.00
  WS02004413WS02003067    1.00   0.06  0.04  0.00  0.00  0.00  0.90  0.00  0.00  0.00
  WS02006109WS02006110    1.00   0.00  0.01  0.00  0.98  0.00  0.01  0.00  0.00  0.00
  WS02006110WS02006113    1.00   0.01  0.01  0.00  0.98  0.00  0.00  0.00  0.00  0.00
  WS02006111WS02006112    1.00   0.02  0.00  0.00  0.98  0.00  0.00  0.00  0.98  0.00
  WS02006112WS02006115    1.00   0.02  0.00  0.00  0.97  0.00  0.00  0.00  0.00  0.00
  WS02006113WS02006111    1.00   0.02  0.00  0.00  0.00  0.98  0.00  0.00  0.09  0.00
  WS02006115WS02006116    1.00   0.02  0.00  0.00  0.97  0.00  0.00  0.01  0.00  0.00
  WS02006116WS02004401    1.00   0.02  0.00  0.00  0.98  0.00  0.00  0.00  0.00  0.00
  WS02006228WS02006109    1.00   0.00  0.00  0.00  1.00  0.00  0.00  0.00  0.00  0.00
  WS02006229WS02006228    1.00   0.00  0.00  0.00  0.99  0.00  0.00  0.01  0.00  0.00
  WS02006230WS02006229    1.00   0.00  0.00  0.00  0.99  0.00  0.00  0.01  0.03  0.00
  WS02006231WS02006230    1.00   0.00  0.00  0.00  0.16  0.00  0.84  0.00  0.00  0.00
  WS02006232WS02006231    1.00   0.00  0.00  0.00  0.98  0.00  0.01  0.00  0.00  0.00
  WS02006234WS02006232    1.00   0.00  0.00  0.00  1.00  0.00  0.00  0.00  0.31  0.00
  WS02006235WS02006234    1.00   0.00  0.00  0.00  0.62  0.00  0.38  0.00  0.00  0.00
  WS02006238WS02006235    1.00   0.00  0.00  0.00  1.00  0.00  0.00  0.00  0.00  0.00
  WS02006239WS02006238    1.00   0.00  0.00  0.00  1.00  0.00  0.00  0.00  0.47  0.00
  WS02006240WS02006239    1.00   0.00  0.00  0.00  0.47  0.00  0.00  0.53  0.03  0.00
  WS02006242WS02006240    1.00   0.00  0.00  0.00  1.00  0.00  0.00  0.00  0.00  0.00
  WS02006243WS02006242    1.00   0.00  0.00  0.00  0.99  0.00  0.00  0.01  0.74  0.00
  WS02006245WS02006243    1.00   0.00  0.00  0.00  0.48  0.00  0.00  0.52  0.02  0.00
  WS02006247WS02006245    1.00   0.00  0.00  0.00  0.98  0.00  0.00  0.02  0.00  0.00
  WS02006248WS02006247    1.00   0.00  0.00  0.00  0.99  0.00  0.00  0.01  0.27  0.00
  WS02006249WS02006248    1.00   0.00  0.00  0.00  0.30  0.00  0.70  0.00  0.00  0.00
  WS02006251WS02006249    1.00   0.00  0.01  0.00  0.99  0.01  0.00  0.00  0.75  0.00
  WS02006252WS02006251    1.00   0.00  0.30  0.00  0.11  0.00  0.58  0.00  0.00  0.00
  WS02006256WS02006235    1.00   0.00  0.00  0.00  0.99  0.01  0.00  0.00  0.00  0.00
  WSF200WS02003060        1.00   0.00  0.13  0.00  0.73  0.15  0.00  0.00  0.70  0.00
  YS02001580YS02001583    1.00   0.20  0.64  0.00  0.16  0.00  0.00  0.00  0.73  0.00
  YS02001583YS02001586    1.00   0.51  0.27  0.00  0.22  0.00  0.00  0.00  0.73  0.00
  YS02001586YS02001590    1.00   0.13  0.00  0.00  0.36  0.04  0.00  0.48  0.32  0.00
  YS02001590YS02001593    1.00   0.13  0.01  0.00  0.08  0.00  0.79  0.00  0.00  0.00
  YS02001593YS02001596    1.00   0.14  0.00  0.00  0.09  0.01  0.00  0.77  0.02  0.00
  YS02001596YS02001600    1.00   0.14  0.00  0.00  0.16  0.02  0.00  0.69  0.06  0.00
  YS02001600YS02001601    1.00   0.13  0.01  0.00  0.86  0.00  0.00  0.00  0.64  0.00
  YS02001601YS02001602    1.00   0.13  0.01  0.00  0.86  0.00  0.00  0.00  0.00  0.00
  YS02001602YS02001605    1.00   0.14  0.00  0.00  0.86  0.00  0.00  0.00  0.00  0.00
  YS02001605YS02001607    1.00   0.14  0.00  0.00  0.86  0.00  0.00  0.00  0.00  0.00
  YS02001607YS02001610    1.00   0.13  0.01  0.00  0.86  0.00  0.00  0.00  0.02  0.00
  YS02001610YS02001613    1.00   0.13  0.00  0.00  0.87  0.00  0.00  0.00  0.01  0.00
  YS02001613YS02001616    1.00   0.13  0.00  0.00  0.87  0.00  0.00  0.00  0.00  0.00
  YS02001616YS02001619    1.00   0.13  0.00  0.00  0.87  0.00  0.00  0.00  0.00  0.00
  YS02001619YS02001622    1.00   0.13  0.00  0.00  0.87  0.00  0.00  0.00  0.37  0.00
  YS02001622YS02001625    1.00   0.13  0.00  0.00  0.87  0.00  0.00  0.00  0.05  0.00
  YS02001625YS02001629    1.00   0.13  0.05  0.00  0.11  0.00  0.71  0.00  0.00  0.00
  YS02001629YS02163301    1.00   0.16  0.01  0.00  0.83  0.00  0.00  0.00  0.00  0.00
  YS02001633YS02163601    1.00   0.00  0.01  0.00  0.99  0.00  0.00  0.00  0.15  0.00
  YS02001641YS02001644    1.00   0.00  0.01  0.00  0.99  0.00  0.00  0.00  0.00  0.00
  YS02001644YS02001647    1.00   0.00  0.17  0.00  0.83  0.00  0.00  0.00  0.00  0.00
  YS02001647YS02001649    1.00   0.00  0.17  0.00  0.54  0.29  0.00  0.00  0.60  0.00
  YS02001649YS02001757    1.00   0.00  0.00  0.00  0.70  0.30  0.00  0.00  0.61  0.00
  YS02001652YS02001649    1.00   0.00  0.00  0.00  0.97  0.03  0.00  0.00  0.78  0.00
  YS02001655YS02001652    1.00   0.00  0.00  0.00  0.13  0.02  0.00  0.85  0.06  0.00
  YS02001658YS02001655    1.00   0.00  0.14  0.00  0.64  0.21  0.00  0.00  0.74  0.00
  YS02001661YS02001658    1.00   0.14  0.00  0.00  0.51  0.35  0.00  0.00  0.77  0.00
  YS02001664YS02001661    1.00   0.13  0.00  0.00  0.78  0.10  0.00  0.00  0.86  0.00
  YS02001745YS02001748    1.00   0.00  0.00  0.00  0.05  0.01  0.00  0.94  0.05  0.00
  YS02001748YS02001751    1.00   0.00  0.00  0.00  0.81  0.19  0.00  0.00  0.80  0.00
  YS02001751YS02001754    1.00   0.00  0.00  0.00  0.10  0.00  0.00  0.89  0.02  0.00
  YS02001754YS02001757    1.00   0.00  0.00  0.00  1.00  0.00  0.00  0.00  0.89  0.00
  YS02001757CaochengTiaoxuchi    1.00   0.00  0.00  0.00  1.00  0.00  0.00  0.00  0.88  0.00
  YS02001759YS02001757    1.00   0.00  0.00  0.00  1.00  0.00  0.00  0.00  0.65  0.00
  YS02001762YS02001759    1.00   0.00  0.00  0.00  1.00  0.00  0.00  0.00  0.04  0.00
  YS02001765YS02001762    1.00   0.00  0.00  0.00  1.00  0.00  0.00  0.00  0.77  0.00
  YS02001767YS02001765    1.00   0.00  0.00  0.00  1.00  0.00  0.00  0.00  0.00  0.00
  YS02001770YS02001767    1.00   0.00  0.00  0.00  1.00  0.00  0.00  0.00  0.00  0.00
  YS02001774YS02001770    1.00   0.00  0.13  0.00  0.59  0.00  0.27  0.00  0.03  0.00
  YS02001779YS02001774    1.00   0.00  0.00  0.00  1.00  0.00  0.00  0.00  0.83  0.00
  YS02001783YS02001784    1.00   0.00  0.18  0.00  0.82  0.00  0.00  0.00  0.58  0.00
  YS02001784YS02001785    1.00   0.00  0.00  0.00  1.00  0.00  0.00  0.00  0.17  0.00
  YS02001786YS02001788    1.00   0.00  0.00  0.00  0.80  0.20  0.00  0.00  0.00  0.00
  YS02001788YS02001790    1.00   0.00  0.00  0.00  0.20  0.80  0.00  0.00  0.87  0.00
  YS02001790YS02001791    1.00   0.00  0.00  0.00  0.01  0.99  0.00  0.00  0.16  0.00
  YS02001791YS02001793    1.00   0.00  0.00  0.00  0.00  1.00  0.00  0.00  0.01  0.00
  YS02001793JiankangQianchi    1.00   0.00  0.00  0.00  1.00  0.00  0.00  0.00  0.97  0.00
  YS02001882YS02001884    1.00   0.16  0.01  0.00  0.84  0.00  0.00  0.00  0.00  0.00
  YS02001884YS02001887    1.00   0.06  0.05  0.00  0.89  0.00  0.00  0.00  0.00  0.00
  YS02001887YS02001890    1.00   0.00  0.00  0.00  0.97  0.00  0.03  0.00  0.00  0.00
  YS02001890YS02001895    1.00   0.00  0.17  0.00  0.83  0.00  0.00  0.00  0.00  0.00
  YS02001895YS02001898    1.00   0.17  0.00  0.00  0.82  0.00  0.01  0.00  0.00  0.00
  YS02001898YS02001901    1.00   0.17  0.00  0.00  0.83  0.00  0.00  0.00  0.01  0.00
  YS02001901YS02001904    1.00   0.17  0.00  0.00  0.83  0.00  0.00  0.00  0.00  0.00
  YS02001904YS02001907    1.00   0.00  0.17  0.00  0.83  0.00  0.00  0.00  0.00  0.00
  YS02001907YS02006553    1.00   0.00  0.02  0.00  0.98  0.00  0.00  0.00  0.00  0.00
  YS02001910YS02001907    1.00   0.00  0.00  0.00  0.97  0.00  0.00  0.03  0.12  0.00
  YS02001915YS02001910    1.00   0.00  0.00  0.00  0.96  0.04  0.00  0.00  0.16  0.00
  YS02001918YS02001915    1.00   0.00  0.01  0.00  0.98  0.02  0.00  0.00  0.79  0.00
  YS02001920YS02001918    1.00   0.00  0.01  0.00  0.99  0.00  0.00  0.00  0.00  0.00
  YS02001923YS02001920    1.00   0.00  0.00  0.00  1.00  0.00  0.00  0.00  0.95  0.00
  YS02001926YS02001923    1.00   0.00  0.07  0.00  0.04  0.00  0.89  0.00  0.00  0.00
  YS02001929YS02001926    1.00   0.00  0.13  0.00  0.87  0.00  0.00  0.00  0.84  0.00
  YS02006553YS02006556    1.00   0.01  0.00  0.00  0.99  0.00  0.00  0.00  0.03  0.00
  YS02006556YS02006558    1.00   0.00  0.00  0.00  1.00  0.00  0.00  0.00  0.00  0.00
  YS02006558YS02006561    1.00   0.18  0.00  0.00  0.03  0.79  0.00  0.00  0.19  0.00
  YS02006561YS02001783    1.00   0.18  0.00  0.00  0.06  0.76  0.00  0.00  0.73  0.00
  YS02163301YS02001633    1.00   0.00  0.16  0.00  0.84  0.00  0.00  0.00  0.00  0.00
  YS02163601YS02164001    1.00   0.00  0.08  0.00  0.92  0.00  0.00  0.00  0.00  0.00
  YS02164001YS02001641    1.00   0.01  0.07  0.00  0.92  0.00  0.00  0.00  0.06  0.00
  
  
  *************************
  Conduit Surcharge Summary
  *************************
  
  ----------------------------------------------------------------------------
                                                           Hours        Hours 
                         --------- Hours Full --------   Above Full   Capacity
  Conduit                Both Ends  Upstream  Dnstream   Normal Flow   Limited
  ----------------------------------------------------------------------------
  WS02003072WS02003073        0.01      0.01      0.01      1.37         0.01
  WS02004403WS02004404        0.01      0.01      0.05      0.01         0.01
  WS02004404WS02004405        0.01      0.05      0.01      1.78         0.01
  WS02004405WS02004406        0.01      0.01      0.01      0.78         0.01
  WS02006109WS02006110        0.86      0.86      1.21      0.87         0.01
  WS02006110WS02006113        0.01      0.01      1.21      0.01         0.01
  WS02006111WS02006112        0.01      0.01      1.34      0.01         0.01
  WS02006112WS02006115        0.01      0.01      0.82      0.01         0.01
  WS02006228WS02006109        1.19      1.21      1.19      1.37         1.19
  WS02006229WS02006228        1.19      1.19      1.19      1.32         1.18
  WS02006230WS02006229        1.24      1.30      1.24      2.76         1.24
  WS02006231WS02006230        0.86      0.86      0.89      2.13         0.01
  WS02006232WS02006231        0.88      0.88      1.22      0.91         0.01
  WS02006234WS02006232        1.19      1.19      1.22      0.90         0.90
  WS02006235WS02006234        0.95      0.95      1.19      1.97         0.01
  WS02006238WS02006235        1.20      1.20      1.22      0.01         0.01
  WS02006239WS02006238        1.20      1.21      1.21      1.21         1.13
  WS02006240WS02006239        1.19      1.20      1.19      1.22         1.10
  WS02006242WS02006240        1.19      1.19      1.21      1.29         0.01
  WS02006243WS02006242        1.19      1.19      1.21      0.01         0.01
  WS02006245WS02006243        1.19      1.19      1.19      0.39         0.38
  WS02006247WS02006245        1.18      1.19      1.18      1.42         1.18
  WS02006248WS02006247        1.18      1.18      1.18      0.01         0.01
  WS02006249WS02006248        1.17      1.18      1.18      1.39         0.01
  WS02006251WS02006249        1.17      1.17      1.17      1.33         1.16
  WS02006252WS02006251        1.42      1.42      1.42      1.42         0.01
  WS02006256WS02006235        2.01      2.05      4.23      1.36         0.01
  YS02001580YS02001583        0.36      0.36      0.40      0.01         0.01
  YS02001583YS02001586        0.36      0.36      0.49      0.01         0.01
  YS02001586YS02001590        0.49      0.49      0.55      0.01         0.01
  YS02001590YS02001593        0.55      0.55      0.56      0.60         0.01
  YS02001593YS02001596        0.55      0.55      0.63      0.01         0.01
  YS02001596YS02001600        0.65      0.65      0.73      0.01         0.01
  YS02001600YS02001601        0.78      0.78      1.07      0.01         0.01
  YS02001601YS02001602        0.94      0.94      1.12      0.75         0.01
  YS02001602YS02001605        0.89      0.89      0.94      1.90         0.01
  YS02001605YS02001607        0.86      0.89      0.86      1.01         0.86
  YS02001607YS02001610        0.51      0.51      0.53      0.01         0.01
  YS02001610YS02001613        0.50      0.50      0.53      0.01         0.01
  YS02001613YS02001616        0.47      0.47      0.50      0.01         0.01
  YS02001616YS02001619        0.45      0.45      0.47      0.01         0.01
  YS02001619YS02001622        0.45      0.45      0.45      0.58         0.42
  YS02001622YS02001625        0.45      0.45      0.60      0.01         0.01
  YS02001625YS02001629        0.41      0.41      0.60      0.01         0.01
  YS02001629YS02163301        0.59      0.59      0.60      0.15         0.17
  YS02001633YS02163601        0.61      0.61      0.63      0.38         0.37
  YS02001641YS02001644        0.53      0.56      0.53      1.18         0.52
  YS02001644YS02001647        0.37      0.37      0.53      0.03         0.01
  YS02001647YS02001649        0.37      0.37      0.46      0.01         0.01
  YS02001649YS02001757        0.46      0.46      0.51      0.23         0.20
  YS02001652YS02001649        0.31      0.31      0.46      0.01         0.01
  YS02001655YS02001652        0.13      0.13      0.29      0.01         0.01
  YS02001658YS02001655        0.01      0.01      0.13      0.01         0.01
  YS02001661YS02001658        0.01      0.01      0.01      0.01         0.01
  YS02001748YS02001751        0.01      0.01      0.02      0.01         0.01
  YS02001751YS02001754        0.02      0.02      0.17      0.01         0.01
  YS02001754YS02001757        0.23      0.23      0.51      0.01         0.01
  YS02001757CaochengTiaoxuchi        0.45      0.51      0.93      0.23         0.15
  YS02001759YS02001757        0.41      0.41      0.51      0.01         0.01
  YS02001762YS02001759        0.38      0.38      0.41      0.01         0.01
  YS02001765YS02001762        0.34      0.34      0.38      0.01         0.01
  YS02001767YS02001765        0.32      0.32      0.34      0.01         0.01
  YS02001770YS02001767        0.31      0.31      0.32      0.33         0.22
  YS02001774YS02001770        0.29      0.29      0.37      0.01         0.01
  YS02001779YS02001774        0.17      0.17      0.37      0.01         0.01
  YS02001783YS02001784        0.31      0.33      0.31      0.44         0.31
  YS02001784YS02001785        0.22      0.31      0.22      0.60         0.22
  YS02001786YS02001788        0.01      0.22      0.01      0.50         0.01
  YS02001790YS02001791        0.01      0.01      0.01      0.30         0.01
  YS02001793JiankangQianchi        0.01      0.01      7.70      0.01         0.01
  YS02001882YS02001884        0.29      0.29      0.30      0.01         0.01
  YS02001884YS02001887        0.32      0.32      0.33      0.01         0.01
  YS02001887YS02001890        0.34      0.34      0.35      0.01         0.01
  YS02001890YS02001895        0.28      0.28      0.36      0.01         0.01
  YS02001895YS02001898        0.27      0.27      0.28      0.01         0.01
  YS02001898YS02001901        0.28      0.28      0.31      0.01         0.01
  YS02001901YS02001904        0.31      0.31      0.31      0.01         0.01
  YS02001904YS02001907        0.31      0.31      0.49      0.01         0.01
  YS02001907YS02006553        0.61      0.61      0.65      0.01         0.01
  YS02001910YS02001907        0.36      0.36      0.48      0.01         0.01
  YS02001915YS02001910        0.29      0.29      0.36      0.01         0.01
  YS02001918YS02001915        0.21      0.21      0.29      0.01         0.01
  YS02001920YS02001918        0.21      0.21      0.22      0.01         0.01
  YS02001923YS02001920        0.17      0.17      0.22      0.01         0.01
  YS02001926YS02001923        0.01      0.01      0.01      0.01         0.01
  YS02001929YS02001926        0.01      0.01      0.01      0.01         0.01
  YS02006553YS02006556        0.42      0.42      0.49      0.01         0.01
  YS02006556YS02006558        0.45      0.45      0.50      0.01         0.01
  YS02006558YS02006561        0.24      0.41      0.24      0.56         0.24
  YS02006561YS02001783        0.18      0.18      0.33      0.01         0.01
  YS02163301YS02001633        0.60      0.60      0.62      0.01         0.01
  YS02163601YS02164001        0.57      0.57      0.63      0.04         0.01
  YS02164001YS02001641        0.56      0.57      0.56      0.66         0.55
  
  
  ***************
  Pumping Summary
  ***************
  
  ---------------------------------------------------------------------------------------------------------
                                                  Min       Avg       Max     Total     Power    % Time Off
                        Percent   Number of      Flow      Flow      Flow    Volume     Usage    Pump Curve
  Pump                 Utilized   Start-Ups       LPS       LPS       LPS  10^6 ltr     Kw-hr    Low   High
  ---------------------------------------------------------------------------------------------------------
  CC-R1                   17.01          17      0.00    683.00    683.00     3.346     60.15    0.0   35.9
  CC-R2                   15.65          17      0.00    683.00    683.00     3.078     55.20    0.0   39.0
  CC-S1                   18.50          17      0.00    200.00    200.00     1.065      6.60    0.0    0.0
  CC-S2                   17.78          17      0.00    200.00    200.00     1.024      6.35    0.0    0.0
  JK-R1                    4.80           9      0.00   1000.00   1000.00     1.383     16.62    0.0    0.0
  JK-R2                    0.16           1      0.00   1000.00   1000.00     0.047      0.36    0.0    0.0
  JK-S                    16.89          10      0.00    300.00    300.00     1.459     21.66    0.0    0.0
  XR-1                    97.91           2      0.00     95.00     95.00     2.679      9.60    0.0    0.0
  XR-2                    93.94           2      0.00     95.00     95.00     2.570      8.76    0.0    0.0
  XR-3                     0.00           1      0.00     95.00     95.00     0.000      0.00    0.0    0.0
  XR-4                     0.00           1      0.00     95.00     95.00     0.000      0.00    0.0    0.0
  

  Analysis begun on:  Wed Nov  5 16:31:33 2025
  Analysis ended on:  Wed Nov  5 16:31:35 2025
  Total elapsed time: 00:00:02