
  EPA STORM WATER MANAGEMENT MODEL - VERSION 5.2 (Build 5.2.4)
  PYSWMM TOOLKIT API - VERSION v1.0 (2023-11-27)
  ------------------------------------------------------------

  WARNING 04: minimum elevation drop used for Conduit WS02004404WS02004405
  WARNING 03: negative offset ignored for Link YS02001904YS02001907
  
  ****************
  Analysis Options
  ****************
  Flow Units ............... LPS
  Process Models:
    Rainfall/Runoff ........ YES
    RDII ................... NO
    Snowmelt ............... NO
    Groundwater ............ NO
    Flow Routing ........... YES
    Ponding Allowed ........ NO
    Water Quality .......... NO
  Infiltration Method ...... HORTON
  Flow Routing Method ...... DYNWAVE
  Surcharge Method ......... EXTRAN
  Starting Date ............ 08/28/2015 08:00:00
  Ending Date .............. 08/28/2015 16:00:00
  Antecedent Dry Days ...... 8.0
  Report Time Step ......... 00:01:00
  Wet Time Step ............ 00:01:00
  Dry Time Step ............ 00:01:00
  Routing Time Step ........ 30.00 sec
  Variable Time Step ....... YES
  Maximum Trials ........... 8
  Number of Threads ........ 4
  Head Tolerance ........... 0.001500 m
  
  
  **************************        Volume         Depth
  Runoff Quantity Continuity     hectare-m            mm
  **************************     ---------       -------
  Initial LID Storage ......         0.049         1.488
  Total Precipitation ......         2.099        63.277
  Evaporation Loss .........         0.000         0.000
  Infiltration Loss ........         0.077         2.330
  Surface Runoff ...........         1.554        46.843
  Final Storage ............         0.518        15.610
  Continuity Error (%) .....        -0.028
  
  
  **************************        Volume        Volume
  Flow Routing Continuity        hectare-m      10^6 ltr
  **************************     ---------     ---------
  Dry Weather Inflow .......         0.602         6.020
  Wet Weather Inflow .......         1.554        15.538
  Groundwater Inflow .......         0.000         0.000
  RDII Inflow ..............         0.000         0.000
  External Inflow ..........         0.105         1.045
  External Outflow .........         1.816        18.156
  Flooding Loss ............         0.416         4.156
  Evaporation Loss .........         0.000         0.000
  Exfiltration Loss ........         0.000         0.000
  Initial Stored Volume ....         0.303         3.031
  Final Stored Volume ......         0.337         3.369
  Continuity Error (%) .....        -0.184
  
  
  *************************
  Highest Continuity Errors
  *************************
  Node YS02001884 (4.92%)
  Node YS02001583 (-4.42%)
  
  
  ***************************
  Time-Step Critical Elements
  ***************************
  Link WS02004404WS02004405 (43.03%)
  Link WS02006252WS02006251 (12.55%)
  Link WS02006238WS02006235 (11.82%)
  Link YS02001791YS02001793 (11.77%)
  Link WS02003066WSF200 (5.26%)
  
  
  ********************************
  Highest Flow Instability Indexes
  ********************************
  Link WS02006113WS02006111 (27)
  Link WS02006238WS02006235 (24)
  Link WS02006111WS02006112 (19)
  Link WS02006235WS02006234 (18)
  Link WS02006252WS02006251 (17)
  
  
  *********************************
  Most Frequent Nonconverging Nodes
  *********************************
  Node CC-1 (11.41%)
  Node CC-2 (11.41%)
  Node JK-1 (11.41%)
  Node JK-2 (11.41%)
  Node WSC (11.41%)
  
  
  *************************
  Routing Time Step Summary
  *************************
  Minimum Time Step           :     0.00 sec
  Average Time Step           :     3.46 sec
  Maximum Time Step           :     7.04 sec
  % of Time in Steady State   :     0.00
  Average Iterations per Step :     3.15
  % of Steps Not Converging   :    11.41
  Time Step Frequencies       :
     30.000 - 13.228 sec      :     0.00 %
     13.228 -  5.833 sec      :    30.91 %
      5.833 -  2.572 sec      :    21.92 %
      2.572 -  1.134 sec      :    28.07 %
      1.134 -  0.500 sec      :    19.10 %
  
  
  ***************************
  Subcatchment Runoff Summary
  ***************************
  
  ------------------------------------------------------------------------------------------------------------------------------
                            Total      Total      Total      Total     Imperv       Perv      Total       Total     Peak  Runoff
                           Precip      Runon       Evap      Infil     Runoff     Runoff     Runoff      Runoff   Runoff   Coeff
  Subcatchment                 mm         mm         mm         mm         mm         mm         mm    10^6 ltr      LPS
  ------------------------------------------------------------------------------------------------------------------------------
  sub60                     63.28       0.00       0.00       1.38      42.05       4.48      46.53        0.61   448.70   0.735
  sub61                     63.28       0.00       0.00       2.12      42.01       6.68      48.69        0.89   655.24   0.769
  sub62                     63.28       0.00       0.00       0.94      44.79       3.04      47.83        1.31   890.89   0.756
  sub63                     63.28       0.00       0.00       3.89      35.98      11.13      47.12        1.07   745.11   0.745
  sub64                     63.28       0.00       0.00       1.87      40.97       5.53      46.50        1.12   728.32   0.735
  sub65                     63.28       0.00       0.00       1.71      44.22       5.05      49.27        1.36   853.43   0.779
  sub66                     63.28       0.00       0.00       4.56      34.79       9.99      44.78        2.09  1114.67   0.708
  sub67                     63.28       0.00       0.00       0.93      45.92       3.15      49.07        0.91   695.59   0.775
  sub68                     63.28       0.00       0.00       1.63      40.55       5.12      45.68        1.26   891.73   0.722
  sub69                     63.28       0.00       0.00       1.49      42.55       6.03      48.58        1.80  1102.84   0.768
  sub70                     63.28       0.00       0.00       5.05      34.08      12.57      46.65        1.35   642.34   0.737
  sub71                     63.28       0.00       0.00       0.87      40.69       2.75      43.44        1.14   734.49   0.686
  sub72                     63.28       0.00       0.00       0.83      43.95       2.56      46.51        0.64   380.94   0.735
  

  ***********************
  LID Performance Summary
  ***********************

  --------------------------------------------------------------------------------------------------------------------
                                         Total      Evap     Infil   Surface    Drain    Initial     Final  Continuity
                                        Inflow      Loss      Loss   Outflow   Outflow   Storage   Storage       Error
  Subcatchment      LID Control             mm        mm        mm        mm        mm        mm        mm           %
  --------------------------------------------------------------------------------------------------------------------
  sub60             GreenRoof            63.28      0.00      0.00      0.00      0.00      7.05     70.36       -0.05
  sub61             GreenRoof            63.28      0.00      0.00      0.00      0.00      7.05     70.36       -0.05
  sub62             GreenRoof            63.28      0.00      0.00      0.00      0.00      7.05     70.36       -0.05
  sub63             GreenRoof            63.28      0.00      0.00      0.00      0.00      7.05     70.36       -0.05
  sub64             GreenRoof            63.28      0.00      0.00      0.00      0.00      7.05     70.36       -0.05
  sub65             GreenRoof            63.28      0.00      0.00      0.00      0.00      7.05     70.36       -0.05
  sub66             GreenRoof            63.28      0.00      0.00      0.00      0.00      7.05     70.36       -0.05
  sub67             GreenRoof            63.28      0.00      0.00      0.00      0.00      7.05     70.36       -0.05
  sub68             GreenRoof            63.28      0.00      0.00      0.00      0.00      7.05     70.36       -0.05
  sub69             GreenRoof            63.28      0.00      0.00      0.00      0.00      7.05     70.36       -0.05
  sub70             GreenRoof            63.28      0.00      0.00      0.00      0.00      7.05     70.36       -0.05
  sub71             GreenRoof            63.28      0.00      0.00      0.00      0.00      7.05     70.36       -0.05
  sub72             GreenRoof            63.28      0.00      0.00      0.00      0.00      7.05     70.36       -0.05
  
  ******************
  Node Depth Summary
  ******************
  
  ---------------------------------------------------------------------------------
                                 Average  Maximum  Maximum  Time of Max    Reported
                                   Depth    Depth      HGL   Occurrence   Max Depth
  Node                 Type       Meters   Meters   Meters  days hr:min      Meters
  ---------------------------------------------------------------------------------
  WS02001211           JUNCTION     0.60     0.64     5.48     0  03:04        0.64
  WS02001212           JUNCTION     0.34     0.38     5.45     0  03:03        0.38
  WS02001213           JUNCTION     0.53     0.65     5.41     0  03:02        0.65
  WS02003059           JUNCTION     0.59     0.72     5.40     0  03:02        0.72
  WS02003060           JUNCTION     0.30     0.45     5.39     0  03:01        0.45
  WS02003066           JUNCTION     0.16     0.30     5.85     0  03:01        0.30
  WS02003067           JUNCTION     0.43     0.70     6.02     0  03:00        0.70
  WS02003069           JUNCTION     0.34     0.51     5.10     0  03:02        0.51
  WS02003072           JUNCTION     0.40     0.58     4.95     0  03:02        0.58
  WS02003073           JUNCTION     0.23     0.35     4.41     0  03:03        0.35
  WS02004138           JUNCTION     0.13     0.14     7.39     0  00:29        0.14
  WS02004139           JUNCTION     0.54     0.58     5.49     0  03:04        0.58
  WS02004401           JUNCTION     0.52     0.85     6.85     0  02:58        0.85
  WS02004402           JUNCTION     0.56     0.88     6.84     0  02:58        0.88
  WS02004403           JUNCTION     0.58     0.89     6.82     0  02:58        0.89
  WS02004404           JUNCTION     0.65     0.96     6.81     0  02:58        0.96
  WS02004405           JUNCTION     0.65     0.96     6.81     0  02:58        0.96
  WS02004406           JUNCTION     0.66     0.96     6.79     0  02:59        0.96
  WS02004407           JUNCTION     0.14     0.30     6.61     0  02:59        0.30
  WS02004409           JUNCTION     0.31     0.67     6.44     0  02:59        0.67
  WS02004410           JUNCTION     0.34     0.68     6.40     0  02:59        0.68
  WS02004411           JUNCTION     0.36     0.69     6.37     0  03:00        0.69
  WS02004412           JUNCTION     0.39     0.70     6.34     0  03:00        0.70
  WS02004413           JUNCTION     0.54     0.86     6.33     0  03:00        0.86
  WS02006109           JUNCTION     0.59     1.08     7.69     0  02:04        0.97
  WS02006110           JUNCTION     0.59     1.06     7.64     0  03:11        0.95
  WS02006111           JUNCTION     0.15     0.29     6.99     0  02:47        0.29
  WS02006112           JUNCTION     0.68     1.08     6.97     0  03:11        1.05
  WS02006113           JUNCTION     0.22     0.46     7.35     0  02:40        0.46
  WS02006115           JUNCTION     0.41     0.75     6.89     0  02:58        0.75
  WS02006116           JUNCTION     0.49     0.83     6.87     0  02:58        0.83
  WS02006228           JUNCTION     0.58     1.09     7.74     0  02:04        1.02
  WS02006229           JUNCTION     0.56     1.10     7.79     0  03:10        1.07
  WS02006230           JUNCTION     0.56     1.24     7.98     0  03:10        1.13
  WS02006231           JUNCTION     0.37     0.99     8.12     0  03:10        0.89
  WS02006232           JUNCTION     0.50     1.32     8.35     0  02:02        1.11
  WS02006234           JUNCTION     0.43     1.31     8.47     0  02:02        1.15
  WS02006235           JUNCTION     0.48     1.31     8.47     0  02:02        1.25
  WS02006238           JUNCTION     0.50     1.37     8.52     0  02:02        1.30
  WS02006239           JUNCTION     0.47     1.68     8.89     0  02:38        1.68
  WS02006240           JUNCTION     0.44     1.99     9.28     0  02:38        1.99
  WS02006242           JUNCTION     0.49     1.55     8.82     0  02:02        1.55
  WS02006243           JUNCTION     0.42     1.48     8.90     0  02:02        1.20
  WS02006245           JUNCTION     0.42     1.42     8.90     0  02:02        1.16
  WS02006247           JUNCTION     0.44     1.34     8.84     0  02:02        1.17
  WS02006248           JUNCTION     0.41     1.10     8.69     0  02:27        1.10
  WS02006249           JUNCTION     0.43     1.09     8.69     0  02:03        1.09
  WS02006251           JUNCTION     0.43     2.13     9.80     0  02:03        1.15
  WS02006252           JUNCTION     0.28     1.50     9.74     0  00:00        0.75
  WS02006256           JUNCTION     1.16     2.35     9.28     0  00:00        2.35
  WSF200               JUNCTION     0.13     0.31     5.54     0  03:01        0.31
  YS02001580           JUNCTION     0.10     1.05     9.59     0  02:05        0.77
  YS02001583           JUNCTION     0.13     1.14     9.64     0  02:05        0.82
  YS02001586           JUNCTION     0.23     1.13     9.30     0  02:05        1.13
  YS02001590           JUNCTION     0.34     1.40     9.26     0  02:05        1.38
  YS02001593           JUNCTION     0.26     1.36     9.22     0  02:05        1.29
  YS02001596           JUNCTION     0.38     1.71     9.13     0  02:05        1.65
  YS02001600           JUNCTION     0.48     1.87     9.00     0  02:05        1.86
  YS02001601           JUNCTION     0.67     2.06     8.90     0  02:04        2.06
  YS02001602           JUNCTION     0.58     1.87     8.77     0  02:05        1.87
  YS02001605           JUNCTION     0.53     1.78     8.68     0  02:38        1.78
  YS02001607           JUNCTION     0.50     1.66     8.50     0  02:23        1.66
  YS02001610           JUNCTION     0.54     1.68     8.48     0  02:07        1.68
  YS02001613           JUNCTION     0.50     1.67     8.52     0  02:14        1.67
  YS02001616           JUNCTION     0.43     1.61     8.52     0  02:07        1.61
  YS02001619           JUNCTION     0.41     1.61     8.54     0  02:07        1.61
  YS02001622           JUNCTION     0.40     1.59     8.49     0  02:14        1.59
  YS02001625           JUNCTION     0.65     1.78     8.38     0  02:07        1.78
  YS02001629           JUNCTION     0.54     1.85     8.40     0  02:09        1.85
  YS02001633           JUNCTION     0.62     2.04     8.49     0  02:09        2.00
  YS02001641           JUNCTION     0.59     1.95     8.39     0  02:09        1.95
  YS02001644           JUNCTION     0.58     1.92     8.35     0  02:09        1.92
  YS02001647           JUNCTION     0.36     1.78     8.39     0  02:09        1.78
  YS02001649           JUNCTION     0.41     1.95     8.34     0  02:11        1.93
  YS02001652           JUNCTION     0.29     1.82     8.42     0  02:11        1.77
  YS02001655           JUNCTION     0.22     1.71     8.56     0  02:09        1.55
  YS02001658           JUNCTION     0.16     1.62     8.76     0  02:09        1.28
  YS02001661           JUNCTION     0.17     1.34     8.75     0  02:11        1.03
  YS02001664           JUNCTION     0.07     0.54     8.47     0  02:10        0.49
  YS02001745           JUNCTION     0.08     0.75     8.27     0  02:12        0.75
  YS02001748           JUNCTION     0.15     2.11     9.19     0  02:10        1.18
  YS02001751           JUNCTION     0.18     1.91     8.79     0  02:10        1.37
  YS02001754           JUNCTION     0.25     1.82     8.43     0  02:10        1.63
  YS02001757           JUNCTION     0.43     1.99     8.25     0  02:10        1.97
  YS02001759           JUNCTION     0.37     1.96     8.32     0  02:13        1.96
  YS02001762           JUNCTION     0.36     1.94     8.34     0  02:12        1.93
  YS02001765           JUNCTION     0.33     1.90     8.35     0  02:11        1.90
  YS02001767           JUNCTION     0.33     1.89     8.38     0  02:11        1.89
  YS02001770           JUNCTION     0.34     1.93     8.43     0  02:11        1.93
  YS02001774           JUNCTION     0.41     1.98     8.40     0  02:11        1.98
  YS02001779           JUNCTION     0.23     1.68     8.37     0  02:08        1.68
  YS02001783           JUNCTION     0.29     1.28     7.42     0  02:09        1.22
  YS02001784           JUNCTION     0.30     1.14     7.21     0  02:09        1.11
  YS02001786           JUNCTION     0.25     0.89     6.92     0  02:09        0.87
  YS02001788           JUNCTION     0.18     0.62     6.60     0  02:12        0.62
  YS02001790           JUNCTION     0.22     0.72     6.37     0  02:14        0.72
  YS02001791           JUNCTION     0.14     0.44     5.91     0  02:13        0.44
  YS02001793           JUNCTION     0.07     0.30     5.13     0  02:15        0.28
  YS02001882           JUNCTION     0.35     1.66     8.38     0  02:09        1.63
  YS02001884           JUNCTION     0.44     1.75     8.37     0  02:09        1.73
  YS02001887           JUNCTION     0.51     1.82     8.35     0  02:09        1.81
  YS02001890           JUNCTION     0.54     1.81     8.32     0  02:09        1.81
  YS02001895           JUNCTION     0.32     1.57     8.32     0  02:14        1.56
  YS02001898           JUNCTION     0.33     1.57     8.30     0  02:09        1.56
  YS02001901           JUNCTION     0.43     1.68     8.28     0  02:11        1.68
  YS02001904           JUNCTION     0.42     1.64     8.27     0  02:09        1.64
  YS02001907           JUNCTION     0.73     1.96     8.25     0  02:09        1.96
  YS02001910           JUNCTION     0.53     1.96     8.47     0  02:10        1.83
  YS02001915           JUNCTION     0.35     1.91     8.62     0  02:10        1.68
  YS02001918           JUNCTION     0.18     1.81     8.88     0  02:10        1.35
  YS02001920           JUNCTION     0.26     2.11     9.12     0  02:10        1.42
  YS02001923           JUNCTION     0.13     2.03     9.29     0  02:10        1.21
  YS02001926           JUNCTION     0.17     1.90     9.35     0  02:10        1.03
  YS02001929           JUNCTION     0.10     1.78     9.47     0  02:10        0.80
  YS02006553           JUNCTION     0.73     1.97     8.26     0  02:11        1.97
  YS02006556           JUNCTION     0.70     1.95     8.26     0  02:13        1.95
  YS02006558           JUNCTION     0.75     1.99     8.26     0  02:11        1.99
  YS02006561           JUNCTION     0.17     0.97     7.63     0  02:09        0.89
  YS02163301           JUNCTION     0.56     1.93     8.45     0  02:09        1.91
  YS02163601           JUNCTION     0.65     2.05     8.44     0  02:09        2.03
  YS02164001           JUNCTION     0.58     2.01     8.47     0  02:38        2.01
  CC-1                 OUTFALL      0.00     0.00     0.00     0  00:00        0.00
  CC-2                 OUTFALL      0.00     0.00     0.00     0  00:00        0.00
  JK-1                 OUTFALL      0.00     0.00     0.00     0  00:00        0.00
  JK-2                 OUTFALL      0.00     0.00     0.00     0  00:00        0.00
  WSC                  OUTFALL      0.23     0.35     1.02     0  03:03        0.35
  CC-storage           STORAGE      0.86     1.66     7.16     0  02:33        1.66
  JK-storage           STORAGE      2.52     4.23     5.03     0  02:25        4.21
  XR-storage           STORAGE      7.81     9.26     7.26     0  08:00        9.26
  
  
  *******************
  Node Inflow Summary
  *******************
  
  -------------------------------------------------------------------------------------------------
                                  Maximum  Maximum                  Lateral       Total        Flow
                                  Lateral    Total  Time of Max      Inflow      Inflow     Balance
                                   Inflow   Inflow   Occurrence      Volume      Volume       Error
  Node                 Type           LPS      LPS  days hr:min    10^6 ltr    10^6 ltr     Percent
  -------------------------------------------------------------------------------------------------
  WS02001211           JUNCTION      7.35   200.95     0  03:20       0.212        5.44       0.611
  WS02001212           JUNCTION      0.00   202.38     0  03:16           0        5.41       0.290
  WS02001213           JUNCTION      0.00   204.48     0  03:44           0        5.39       0.331
  WS02003059           JUNCTION      0.00   209.55     0  03:18           0        5.38       0.592
  WS02003060           JUNCTION     16.53   751.55     0  03:01       0.476         9.2       0.152
  WS02003066           JUNCTION      0.00   537.35     0  03:01           0        3.38       0.036
  WS02003067           JUNCTION      0.00   537.29     0  03:00           0        3.38       0.119
  WS02003069           JUNCTION      0.32   751.57     0  03:02     0.00922        9.19       0.161
  WS02003072           JUNCTION      0.00   751.37     0  03:02           0        9.17       0.220
  WS02003073           JUNCTION      1.82   753.08     0  03:03      0.0524         9.2       0.226
  WS02004138           JUNCTION      0.00   380.00     0  00:00           0        5.25       0.053
  WS02004139           JUNCTION      0.32   191.16     0  00:29     0.00924        5.26       0.509
  WS02004401           JUNCTION      0.00   541.09     0  02:58           0        3.48       0.284
  WS02004402           JUNCTION      0.00   540.24     0  02:58           0        3.47       0.290
  WS02004403           JUNCTION      0.00   539.88     0  02:58           0        3.46       0.284
  WS02004404           JUNCTION      0.16   539.45     0  02:58     0.00467        3.45       0.237
  WS02004405           JUNCTION      0.04   539.33     0  02:58      0.0011        3.44       0.356
  WS02004406           JUNCTION      0.00   539.58     0  02:59           0        3.43       0.593
  WS02004407           JUNCTION      0.00   538.83     0  02:59           0        3.41       0.026
  WS02004409           JUNCTION      0.00   538.42     0  02:59           0        3.41       0.066
  WS02004410           JUNCTION      0.00   538.04     0  02:59           0        3.41       0.114
  WS02004411           JUNCTION      0.00   537.78     0  03:00           0         3.4       0.150
  WS02004412           JUNCTION      0.00   537.62     0  03:00           0         3.4       0.205
  WS02004413           JUNCTION      0.00   537.57     0  03:00           0        3.39       0.369
  WS02006109           JUNCTION      1.23   550.51     0  03:11      0.0354        3.52       0.231
  WS02006110           JUNCTION      0.00   551.54     0  03:11           0        3.51       0.185
  WS02006111           JUNCTION      0.00   559.98     0  02:47           0         3.5       0.011
  WS02006112           JUNCTION      0.00   543.55     0  02:57           0         3.5       0.493
  WS02006113           JUNCTION      0.00   562.47     0  02:04           0        3.51       0.053
  WS02006115           JUNCTION      0.00   549.84     0  02:30           0        3.49       0.176
  WS02006116           JUNCTION      0.00   542.62     0  02:58           0        3.48       0.128
  WS02006228           JUNCTION      0.00   548.28     0  03:16           0        3.49       0.096
  WS02006229           JUNCTION      0.00   548.11     0  03:11           0        3.49       0.112
  WS02006230           JUNCTION     10.28   589.27     0  03:10       0.296         3.5       0.143
  WS02006231           JUNCTION      0.00   569.11     0  03:15           0         3.2      -0.076
  WS02006232           JUNCTION      0.00   567.89     0  03:15           0        3.21       0.211
  WS02006234           JUNCTION      0.00   563.82     0  03:15           0         3.2      -0.176
  WS02006235           JUNCTION      0.00   559.06     0  03:10           0        3.23       0.169
  WS02006238           JUNCTION      0.00   423.60     0  03:12           0        2.21      -0.112
  WS02006239           JUNCTION      0.00   423.34     0  03:12           0        2.19      -0.042
  WS02006240           JUNCTION      0.00   422.24     0  03:12           0        2.17      -0.063
  WS02006242           JUNCTION      0.00   422.16     0  03:12           0        2.16      -0.161
  WS02006243           JUNCTION      0.00   422.12     0  03:12           0        2.16      -0.069
  WS02006245           JUNCTION      0.00   420.75     0  03:12           0        2.17       0.441
  WS02006247           JUNCTION      0.00   418.98     0  03:12           0        2.17       0.003
  WS02006248           JUNCTION      0.00   419.43     0  03:11           0        2.17      -0.084
  WS02006249           JUNCTION      0.00   458.97     0  00:00           0        2.48       0.466
  WS02006251           JUNCTION      0.08   419.97     0  02:03     0.00222        2.48       0.002
  WS02006252           JUNCTION      0.00   400.00     0  00:00           0        2.47      -0.231
  WS02006256           JUNCTION      0.00   300.00     0  00:00           0        1.53      -0.269
  WSF200               JUNCTION      0.00   537.40     0  03:01           0        3.37       0.013
  YS02001580           JUNCTION      0.00    83.76     0  02:05           0     0.00405      -1.799
  YS02001583           JUNCTION      0.00   151.61     0  02:05           0      0.0152      -4.236
  YS02001586           JUNCTION    642.34   642.34     0  02:15        1.35        1.36       0.087
  YS02001590           JUNCTION      0.00   318.07     0  02:27           0        1.13      -0.031
  YS02001593           JUNCTION      0.00   318.04     0  02:27           0        1.13       0.005
  YS02001596           JUNCTION      0.00   318.00     0  02:21           0        1.13      -0.010
  YS02001600           JUNCTION      0.00   317.99     0  02:17           0        1.13       0.010
  YS02001601           JUNCTION   1102.84  1420.64     0  02:14         1.8        2.93       0.021
  YS02001602           JUNCTION      0.00   505.91     0  02:04           0           2       0.016
  YS02001605           JUNCTION      0.00   506.16     0  02:04           0        1.92       0.021
  YS02001607           JUNCTION      0.00   506.06     0  02:04           0        1.92       0.095
  YS02001610           JUNCTION      0.00   570.83     0  02:15           0           2       0.105
  YS02001613           JUNCTION      0.00   506.90     0  02:04           0        1.68       0.094
  YS02001616           JUNCTION      0.00   505.75     0  02:04           0        1.68       0.020
  YS02001619           JUNCTION   1114.67  1114.67     0  02:14        2.09        3.68      -0.003
  YS02001622           JUNCTION      0.00   919.55     0  02:07           0        3.59      -0.004
  YS02001625           JUNCTION      0.00  1196.83     0  02:14           0        3.69       0.245
  YS02001629           JUNCTION      0.00   920.71     0  02:07           0        3.03       0.003
  YS02001633           JUNCTION    853.63  1343.93     0  02:07        1.36        4.26       0.076
  YS02001641           JUNCTION      0.00  1344.36     0  02:07           0        4.15       0.061
  YS02001644           JUNCTION    728.36  1708.29     0  02:07        1.12        5.26       0.057
  YS02001647           JUNCTION      0.00  1708.61     0  02:07           0        5.05       0.002
  YS02001649           JUNCTION      0.00  1888.94     0  02:06           0        6.12       0.000
  YS02001652           JUNCTION      0.00   777.01     0  02:14           0        1.08      -0.099
  YS02001655           JUNCTION      0.15   778.17     0  02:14     0.00443        1.07       0.028
  YS02001658           JUNCTION      0.00   778.90     0  02:14           0        1.07      -0.015
  YS02001661           JUNCTION      0.00   869.82     0  02:13           0        1.07      -0.006
  YS02001664           JUNCTION    745.11   745.11     0  02:13        1.07        1.07      -0.009
  YS02001745           JUNCTION    448.70   448.70     0  02:13       0.612       0.612       0.197
  YS02001748           JUNCTION      0.04   559.37     0  02:10      0.0013       0.613      -0.286
  YS02001751           JUNCTION      0.01   454.69     0  02:13    0.000317       0.622       0.119
  YS02001754           JUNCTION      0.26   454.77     0  02:13     0.00749       0.639      -0.185
  YS02001757           JUNCTION      0.00  3109.39     0  02:11           0        8.91       0.010
  YS02001759           JUNCTION    655.28  1266.65     0  02:13       0.895        2.15      -0.013
  YS02001762           JUNCTION      0.00   682.01     0  02:17           0        1.26      -0.010
  YS02001765           JUNCTION      0.00   681.69     0  02:17           0        1.26       0.011
  YS02001767           JUNCTION      0.54   681.15     0  02:17      0.0154        1.26       0.020
  YS02001770           JUNCTION    891.04   891.04     0  02:13        1.31        1.36      -0.006
  YS02001774           JUNCTION      0.00   335.50     0  02:08           0       0.129       0.803
  YS02001779           JUNCTION      0.01   341.84     0  02:08    0.000144      0.0869      -0.621
  YS02001783           JUNCTION      0.00  1161.34     0  02:12           0        3.34       0.006
  YS02001784           JUNCTION      1.06  1162.39     0  02:11      0.0305        3.37       0.014
  YS02001786           JUNCTION      0.06  1161.83     0  02:11     0.00162        3.37       0.020
  YS02001788           JUNCTION      0.07  1162.28     0  02:12     0.00204        3.37       0.008
  YS02001790           JUNCTION      0.15  1171.74     0  02:12     0.00446        3.38       0.026
  YS02001791           JUNCTION      0.00  1290.24     0  02:14           0        3.38      -0.023
  YS02001793           JUNCTION      0.00  1245.14     0  02:15           0        3.38       0.005
  YS02001882           JUNCTION      0.00    39.37     0  02:07           0      0.0123       4.619
  YS02001884           JUNCTION      0.00    74.27     0  02:07           0      0.0481       5.174
  YS02001887           JUNCTION    696.04   696.92     0  02:13       0.926       0.959       0.451
  YS02001890           JUNCTION      0.00   697.36     0  02:13           0       0.918       0.541
  YS02001895           JUNCTION      0.00   517.09     0  02:15           0       0.877       0.164
  YS02001898           JUNCTION      0.00   517.18     0  02:15           0       0.876       0.015
  YS02001901           JUNCTION      0.00   517.61     0  02:15           0       0.879       0.363
  YS02001904           JUNCTION      0.00   516.98     0  02:15           0       0.883       0.311
  YS02001907           JUNCTION      0.00  1681.68     0  02:14           0        2.73       0.651
  YS02001910           JUNCTION      0.00  1164.13     0  02:14           0        1.86       0.385
  YS02001915           JUNCTION    734.51  1163.43     0  02:14        1.14         1.9       0.073
  YS02001918           JUNCTION      0.00   454.77     0  02:11           0       0.785       0.016
  YS02001920           JUNCTION      2.87   453.79     0  02:11      0.0827       0.769       0.118
  YS02001923           JUNCTION      0.04   424.69     0  02:10     0.00109       0.671      -0.131
  YS02001926           JUNCTION      0.05   555.98     0  02:10      0.0015       0.651      -0.054
  YS02001929           JUNCTION    380.94   380.94     0  02:14       0.639       0.641      -0.077
  YS02006553           JUNCTION      0.00   799.27     0  02:25           0        2.11       0.565
  YS02006556           JUNCTION      0.00   800.39     0  02:25           0        2.11       0.383
  YS02006558           JUNCTION    892.61  1162.34     0  02:12        1.28        3.37       0.100
  YS02006561           JUNCTION      0.00  1161.48     0  02:12           0        3.34      -0.001
  YS02163301           JUNCTION      0.00   922.34     0  02:07           0        3.02       0.046
  YS02163601           JUNCTION      0.11  1344.21     0  02:07     0.00317        4.14       0.114
  YS02164001           JUNCTION      0.00  1344.30     0  02:07           0        4.14       0.045
  CC-1                 OUTFALL       0.00   683.00     0  00:00           0         3.7       0.000
  CC-2                 OUTFALL       0.00   683.00     0  00:00           0        3.47       0.000
  JK-1                 OUTFALL       0.00  1000.00     0  00:00           0        1.76       0.000
  JK-2                 OUTFALL       0.00  1000.00     0  00:00           0      0.0484       0.000
  WSC                  OUTFALL       0.00   752.99     0  03:03           0        9.18       0.000
  CC-storage           STORAGE       0.00  3109.82     0  02:11           0        11.1      -0.209
  JK-storage           STORAGE       0.00  1222.42     0  02:19           0        3.53       0.199
  XR-storage           STORAGE     200.00   200.00     0  00:00        5.76        6.36       0.001
  
  
  **********************
  Node Surcharge Summary
  **********************
  
  Surcharging occurs when water rises above the top of the highest conduit.
  ---------------------------------------------------------------------
                                               Max. Height   Min. Depth
                                   Hours       Above Crown    Below Rim
  Node                 Type      Surcharged         Meters       Meters
  ---------------------------------------------------------------------
  WS02006109           JUNCTION        1.51          0.256        1.564
  WS02006110           JUNCTION        1.09          0.147        1.703
  WS02006112           JUNCTION        1.06          0.085        1.595
  WS02006228           JUNCTION        1.50          0.264        1.936
  WS02006229           JUNCTION        1.52          0.299        2.151
  WS02006230           JUNCTION        1.11          0.155        1.415
  WS02006231           JUNCTION        1.16          0.285        1.245
  WS02006232           JUNCTION        1.57          0.615        0.865
  WS02006234           JUNCTION        1.39          0.592        0.648
  WS02006235           JUNCTION        1.51          0.595        0.695
  WS02006238           JUNCTION        1.54          0.652        0.778
  WS02006239           JUNCTION        1.48          0.938        0.352
  WS02006240           JUNCTION        1.48          1.279        0.111
  WS02006242           JUNCTION        1.50          0.820        0.000
  WS02006243           JUNCTION        1.48          0.770        0.000
  WS02006245           JUNCTION        1.48          0.709        0.141
  WS02006247           JUNCTION        1.48          0.625        0.135
  WS02006248           JUNCTION        1.47          0.380        0.000
  WS02006249           JUNCTION        1.47          0.390        0.000
  WS02006251           JUNCTION        1.19          1.100        0.080
  WS02006252           JUNCTION        1.62          1.100        0.000
  WS02006256           JUNCTION        3.27          2.050        0.000
  YS02001580           JUNCTION        0.47          0.450        0.000
  YS02001583           JUNCTION        0.48          0.500        0.000
  YS02001586           JUNCTION        0.59          0.510        0.000
  YS02001590           JUNCTION        0.66          0.750        0.000
  YS02001593           JUNCTION        0.66          0.739        0.101
  YS02001596           JUNCTION        0.76          0.983        0.087
  YS02001600           JUNCTION        0.91          1.190        0.000
  YS02001601           JUNCTION        1.28          1.440        0.000
  YS02001602           JUNCTION        1.17          1.270        0.000
  YS02001605           JUNCTION        1.11          1.180        0.000
  YS02001607           JUNCTION        0.64          0.656        0.024
  YS02001610           JUNCTION        0.66          0.680        0.000
  YS02001613           JUNCTION        0.63          0.675        0.025
  YS02001616           JUNCTION        0.59          0.610        0.000
  YS02001619           JUNCTION        0.58          0.610        0.000
  YS02001622           JUNCTION        0.58          0.589        0.031
  YS02001625           JUNCTION        0.75          0.780        0.000
  YS02001629           JUNCTION        0.54          0.470        0.000
  YS02001633           JUNCTION        0.78          1.016        0.044
  YS02001641           JUNCTION        0.72          0.953        0.147
  YS02001644           JUNCTION        0.69          0.920        0.000
  YS02001647           JUNCTION        0.51          0.778        0.122
  YS02001649           JUNCTION        0.61          0.946        0.104
  YS02001652           JUNCTION        0.44          0.789        0.341
  YS02001655           JUNCTION        0.31          0.709        0.491
  YS02001658           JUNCTION        0.16          0.620        0.680
  YS02001661           JUNCTION        0.01          0.274        1.116
  YS02001748           JUNCTION        0.12          1.034        0.156
  YS02001751           JUNCTION        0.22          0.911        0.289
  YS02001754           JUNCTION        0.36          0.773        0.377
  YS02001757           JUNCTION        0.68          0.987        0.223
  YS02001759           JUNCTION        0.58          0.955        0.255
  YS02001762           JUNCTION        0.55          0.941        0.209
  YS02001765           JUNCTION        0.51          0.903        0.197
  YS02001767           JUNCTION        0.49          0.894        0.136
  YS02001770           JUNCTION        0.46          0.900        0.020
  YS02001774           JUNCTION        0.54          0.980        0.070
  YS02001779           JUNCTION        0.36          0.680        0.000
  YS02001783           JUNCTION        0.40          0.482        1.118
  YS02001784           JUNCTION        0.37          0.344        1.146
  YS02001786           JUNCTION        0.28          0.094        1.336
  YS02001882           JUNCTION        0.35          0.661        0.169
  YS02001884           JUNCTION        0.36          0.693        0.177
  YS02001887           JUNCTION        0.39          0.767        0.183
  YS02001890           JUNCTION        0.40          0.760        0.000
  YS02001895           JUNCTION        0.34          0.569        0.181
  YS02001898           JUNCTION        0.33          0.536        0.204
  YS02001901           JUNCTION        0.38          0.676        0.194
  YS02001904           JUNCTION        0.37          0.640        0.210
  YS02001907           JUNCTION        0.60          0.950        0.000
  YS02001910           JUNCTION        0.42          0.964        0.136
  YS02001915           JUNCTION        0.34          0.907        0.093
  YS02001918           JUNCTION        0.27          0.810        0.000
  YS02001920           JUNCTION        0.28          1.107        0.033
  YS02001923           JUNCTION        0.02          0.820        0.000
  YS02001926           JUNCTION        0.04          0.900        0.000
  YS02001929           JUNCTION        0.01          0.780        0.000
  YS02006553           JUNCTION        0.61          0.975        0.215
  YS02006556           JUNCTION        0.51          0.907        0.443
  YS02006558           JUNCTION        0.50          0.894        0.506
  YS02006561           JUNCTION        0.23          0.174        0.976
  YS02163301           JUNCTION        0.76          0.932        0.098
  YS02163601           JUNCTION        0.81          1.047        0.033
  YS02164001           JUNCTION        0.73          1.015        0.085
  
  
  *********************
  Node Flooding Summary
  *********************
  
  Flooding refers to all water that overflows a node, whether it ponds or not.
  --------------------------------------------------------------------------
                                                             Total   Maximum
                                 Maximum   Time of Max       Flood    Ponded
                        Hours       Rate    Occurrence      Volume     Depth
  Node                 Flooded       LPS   days hr:min    10^6 ltr    Meters
  --------------------------------------------------------------------------
  WS02006242              0.01      2.77      0  02:02       0.000     0.000
  WS02006243              0.01     19.47      0  02:02       0.000     0.000
  WS02006248              0.01     13.37      0  02:38       0.000     0.000
  WS02006249              1.17    143.44      0  02:03       0.293     0.000
  WS02006252              0.01    245.63      0  00:00       0.000     0.000
  WS02006256              1.41    293.19      0  00:00       0.497     0.000
  YS02001580              0.01     71.78      0  02:05       0.000     0.000
  YS02001583              0.01     37.77      0  02:05       0.000     0.000
  YS02001586              0.37    324.64      0  02:15       0.214     0.000
  YS02001590              0.01      2.43      0  02:05       0.000     0.000
  YS02001600              0.01      4.03      0  02:05       0.000     0.000
  YS02001601              0.52   1022.66      0  02:14       0.929     0.000
  YS02001602              0.43     62.13      0  02:26       0.086     0.000
  YS02001605              0.01      0.07      0  02:38       0.000     0.000
  YS02001610              0.37    570.47      0  02:15       0.410     0.000
  YS02001616              0.01      4.06      0  02:07       0.000     0.000
  YS02001619              0.01      3.61      0  02:07       0.000     0.000
  YS02001625              0.34   1196.11      0  02:14       0.774     0.000
  YS02001629              0.08    137.78      0  02:12       0.024     0.000
  YS02001644              0.14    675.91      0  02:13       0.199     0.000
  YS02001779              0.11    300.24      0  02:14       0.070     0.000
  YS02001890              0.11    185.13      0  02:13       0.036     0.000
  YS02001907              0.22   1397.23      0  02:14       0.619     0.000
  YS02001918              0.01    123.12      0  02:10       0.001     0.000
  YS02001923              0.01     70.39      0  02:10       0.000     0.000
  YS02001926              0.01    489.14      0  02:10       0.001     0.000
  YS02001929              0.01    241.69      0  02:10       0.001     0.000
  
  
  **********************
  Storage Volume Summary
  **********************
  
  ------------------------------------------------------------------------------------------------
                         Average    Avg   Evap  Exfil     Maximum    Max    Time of Max    Maximum
                          Volume   Pcnt   Pcnt   Pcnt      Volume   Pcnt     Occurrence    Outflow
  Storage Unit           1000 m³   Full   Loss   Loss     1000 m³   Full    days hr:min        LPS
  ------------------------------------------------------------------------------------------------
  CC-storage               2.399   37.4    0.0    0.0       4.637   72.3       0  02:33    1783.53
  JK-storage               0.126   43.4    0.0    0.0       0.212   72.9       0  02:25    2300.00
  XR-storage               0.937   65.0    0.0    0.0       1.111   77.2       0  08:00     380.00
  
  
  ***********************
  Outfall Loading Summary
  ***********************
  
  -----------------------------------------------------------
                         Flow       Avg       Max       Total
                         Freq      Flow      Flow      Volume
  Outfall Node           Pcnt       LPS       LPS    10^6 ltr
  -----------------------------------------------------------
  CC-1                  31.66    683.00    683.00       3.696
  CC-2                  29.54    683.00    683.00       3.472
  JK-1                  13.67   1000.00   1000.00       1.756
  JK-2                   0.25   1000.00   1000.00       0.048
  WSC                   99.93    386.70    752.99       9.184
  -----------------------------------------------------------
  System                35.01   3752.70   3366.23      18.156
  
  
  ********************
  Link Flow Summary
  ********************
  
  -----------------------------------------------------------------------------
                                 Maximum  Time of Max   Maximum    Max/    Max/
                                  |Flow|   Occurrence   |Veloc|    Full    Full
  Link                 Type          LPS  days hr:min     m/sec    Flow   Depth
  -----------------------------------------------------------------------------
  1                    CONDUIT    752.99     0  03:03      3.08    0.26    0.35
  WS02001211WS02001212 CONDUIT    202.38     0  03:16      0.54    0.15    0.51
  WS02001212WS02001213 CONDUIT    204.48     0  03:44      1.04    0.32    0.36
  WS02001213WS02003059 CONDUIT    209.55     0  03:18      0.47    0.35    0.67
  WS02003059WS02003060 CONDUIT    216.63     0  03:45      0.67    0.14    0.59
  WS02003060WS02003069 CONDUIT    751.25     0  03:02      1.77    0.29    0.40
  WS02003066WSF200     CONDUIT    537.40     0  03:01      2.74    0.09    0.23
  WS02003067WS02003066 CONDUIT    537.35     0  03:01      1.21    0.17    0.42
  WS02003069WS02003072 CONDUIT    751.37     0  03:02      1.51    0.36    0.45
  WS02003072WS02003073 CONDUIT    751.26     0  03:03      1.60    1.62    0.43
  WS02004138WS02004139 CONDUIT    190.84     0  00:29      2.17    0.04    0.33
  WS02004139WS02001211 CONDUIT    193.60     0  03:20      0.54    0.24    0.47
  WS02004401WS02004402 CONDUIT    540.24     0  02:58      0.97    0.65    0.86
  WS02004402WS02004403 CONDUIT    539.88     0  02:58      0.97    0.78    0.88
  WS02004403WS02004404 CONDUIT    539.29     0  02:58      0.92    0.39    0.93
  WS02004404WS02004405 CONDUIT    539.29     0  02:58      1.08    5.28    0.96
  WS02004405WS02004406 CONDUIT    539.58     0  02:59      0.99    1.06    0.96
  WS02004406WS02004407 CONDUIT    538.83     0  02:59      1.04    0.24    0.63
  WS02004407WS02004409 CONDUIT    538.42     0  02:59      1.56    0.19    0.48
  WS02004409WS02004410 CONDUIT    538.04     0  02:59      1.01    0.70    0.67
  WS02004410WS02004411 CONDUIT    537.78     0  03:00      0.94    0.73    0.69
  WS02004411WS02004412 CONDUIT    537.62     0  03:00      0.92    0.76    0.69
  WS02004412WS02004413 CONDUIT    537.57     0  03:00      0.82    0.36    0.78
  WS02004413WS02003067 CONDUIT    537.29     0  03:00      1.11    0.23    0.59
  WS02006109WS02006110 CONDUIT    551.54     0  03:11      1.10    1.06    1.00
  WS02006110WS02006113 CONDUIT    562.47     0  02:04      1.35    0.51    0.78
  WS02006111WS02006112 CONDUIT    543.55     0  02:57      1.82    0.26    0.67
  WS02006112WS02006115 CONDUIT    549.84     0  02:30      0.80    0.32    0.87
  WS02006113WS02006111 CONDUIT    559.98     0  02:47      2.46    0.67    0.46
  WS02006115WS02006116 CONDUIT    542.62     0  02:58      0.97    0.70    0.76
  WS02006116WS02004401 CONDUIT    541.09     0  02:58      0.98    0.75    0.84
  WS02006228WS02006109 CONDUIT    549.28     0  03:11      1.09    2.40    1.00
  WS02006229WS02006228 CONDUIT    548.28     0  03:16      1.15    1.82    1.00
  WS02006230WS02006229 CONDUIT    548.11     0  03:11      1.42   12.20    1.00
  WS02006231WS02006230 CONDUIT    578.99     0  03:10      1.57    8.78    1.00
  WS02006232WS02006231 CONDUIT    569.11     0  03:15      1.48    1.19    1.00
  WS02006234WS02006232 CONDUIT    567.89     0  03:15      1.48    1.15    1.00
  WS02006235WS02006234 CONDUIT    563.82     0  03:15      1.47    5.95    1.00
  WS02006238WS02006235 CONDUIT    424.33     0  03:12      1.56    0.95    1.00
  WS02006239WS02006238 CONDUIT    423.60     0  03:12      1.11    1.36    1.00
  WS02006240WS02006239 CONDUIT    423.34     0  03:12      1.24    1.33    1.00
  WS02006242WS02006240 CONDUIT    422.24     0  03:12      1.12    1.68    1.00
  WS02006243WS02006242 CONDUIT    422.16     0  03:12      1.39    0.90    1.00
  WS02006245WS02006243 CONDUIT    422.12     0  03:12      1.45    1.25    1.00
  WS02006247WS02006245 CONDUIT    420.75     0  03:12      1.44    3.34    1.00
  WS02006248WS02006247 CONDUIT    418.98     0  03:12      1.45    0.91    1.00
  WS02006249WS02006248 CONDUIT    419.43     0  03:11      1.37    2.30    1.00
  WS02006251WS02006249 CONDUIT    458.97     0  00:00      1.99    1.32    1.00
  WS02006252WS02006251 CONDUIT    419.89     0  02:03     25.11    1.54    1.00
  WS02006256WS02006235 CONDUIT    289.22     0  01:51      4.23    3.06    1.00
  WSF200WS02003060     CONDUIT    537.60     0  03:01      1.76    0.12    0.32
  YS02001580YS02001583 CONDUIT     83.76     0  02:05      0.60    0.32    1.00
  YS02001583YS02001586 CONDUIT    151.61     0  02:05      0.63    0.23    1.00
  YS02001586YS02001590 CONDUIT    318.07     0  02:27      1.27    0.56    1.00
  YS02001590YS02001593 CONDUIT    318.04     0  02:27      1.12    2.00    1.00
  YS02001593YS02001596 CONDUIT    318.00     0  02:21      1.74    0.50    1.00
  YS02001596YS02001600 CONDUIT    317.99     0  02:17      1.24    0.62    1.00
  YS02001600YS02001601 CONDUIT    318.03     0  02:27      1.12    0.55    1.00
  YS02001601YS02001602 CONDUIT    505.91     0  02:04      1.79    1.83    1.00
  YS02001602YS02001605 CONDUIT    506.16     0  02:04      1.79   10.71    1.00
  YS02001605YS02001607 CONDUIT    506.06     0  02:04      1.79    2.78    1.00
  YS02001607YS02001610 CONDUIT    504.43     0  02:04      0.64    0.48    1.00
  YS02001610YS02001613 CONDUIT    506.90     0  02:04      0.65    0.58    1.00
  YS02001613YS02001616 CONDUIT    505.75     0  02:04      0.65    0.43    1.00
  YS02001616YS02001619 CONDUIT    499.15     0  02:05      0.66    0.87    1.00
  YS02001619YS02001622 CONDUIT    919.55     0  02:07      1.17    1.36    1.00
  YS02001622YS02001625 CONDUIT    920.12     0  02:07      1.17    0.49    1.00
  YS02001625YS02001629 CONDUIT    920.71     0  02:07      1.17    0.44    1.00
  YS02001629YS02163301 CONDUIT    922.34     0  02:07      1.17    1.14    1.00
  YS02001633YS02163601 CONDUIT   1344.10     0  02:07      1.71    1.41    1.00
  YS02001641YS02001644 CONDUIT   1345.27     0  02:07      1.71    4.35    1.00
  YS02001644YS02001647 CONDUIT   1708.61     0  02:07      2.19    1.00    1.00
  YS02001647YS02001649 CONDUIT   1694.63     0  02:07      2.30    0.89    1.00
  YS02001649YS02001757 CONDUIT   1862.97     0  02:07      2.40    1.13    1.00
  YS02001652YS02001649 CONDUIT    775.72     0  02:14      0.99    0.38    1.00
  YS02001655YS02001652 CONDUIT    777.01     0  02:14      1.27    0.38    1.00
  YS02001658YS02001655 CONDUIT    778.02     0  02:14      1.88    0.33    1.00
  YS02001661YS02001658 CONDUIT    778.90     0  02:14      2.25    0.31    1.00
  YS02001664YS02001661 CONDUIT    869.82     0  02:13      2.21    0.27    0.75
  YS02001745YS02001748 CONDUIT    559.32     0  02:10      2.05    0.22    0.88
  YS02001748YS02001751 CONDUIT    454.68     0  02:13      1.61    0.23    1.00
  YS02001751YS02001754 CONDUIT    454.51     0  02:13      1.41    0.22    1.00
  YS02001754YS02001757 CONDUIT    454.34     0  02:13      0.58    0.18    1.00
  YS02001757CaochengTiaoxuchi CONDUIT   3109.82     0  02:11      3.96    1.35    1.00
  YS02001759YS02001757 CONDUIT   1266.47     0  02:13      1.61    0.90    1.00
  YS02001762YS02001759 CONDUIT    683.37     0  02:17      0.87    0.79    1.00
  YS02001765YS02001762 CONDUIT    682.01     0  02:17      0.87    0.64    1.00
  YS02001767YS02001765 CONDUIT    681.69     0  02:17      0.87    0.86    1.00
  YS02001770YS02001767 CONDUIT    680.61     0  02:17      0.87    2.70    1.00
  YS02001774YS02001770 CONDUIT    335.50     0  02:08      0.43    0.21    1.00
  YS02001779YS02001774 CONDUIT    341.83     0  02:08      0.44    0.17    1.00
  YS02001783YS02001784 CONDUIT   1161.33     0  02:11      2.31    1.60    1.00
  YS02001784YS02001785 CONDUIT   1161.77     0  02:11      2.31    2.70    1.00
  YS02001786YS02001788 CONDUIT   1162.20     0  02:12      2.48    2.24    0.89
  YS02001788YS02001790 CONDUIT   1171.59     0  02:12      2.71    0.86    0.84
  YS02001790YS02001791 CONDUIT   1290.24     0  02:14      3.43    1.40    0.70
  YS02001791YS02001793 CONDUIT   1245.14     0  02:15      6.60    0.53    0.45
  YS02001793JiankangQianchi CONDUIT   1222.42     0  02:19      2.41    0.10    0.65
  YS02001882YS02001884 CONDUIT     39.37     0  02:07      0.12    0.05    1.00
  YS02001884YS02001887 CONDUIT     74.27     0  02:07      0.09    0.10    1.00
  YS02001887YS02001890 CONDUIT    697.36     0  02:13      0.89    1.19    1.00
  YS02001890YS02001895 CONDUIT    517.09     0  02:15      0.66    0.24    1.00
  YS02001895YS02001898 CONDUIT    517.18     0  02:15      0.66    0.90    1.00
  YS02001898YS02001901 CONDUIT    517.61     0  02:15      0.66    0.33    1.00
  YS02001901YS02001904 CONDUIT    516.98     0  02:15      0.66    0.80    1.00
  YS02001904YS02001907 CONDUIT    517.30     0  02:15      0.66    0.18    1.00
  YS02001907YS02006553 CONDUIT    799.27     0  02:25      0.89    0.94    1.00
  YS02001910YS02001907 CONDUIT   1164.86     0  02:14      1.48    0.66    1.00
  YS02001915YS02001910 CONDUIT   1164.13     0  02:14      1.48    0.58    1.00
  YS02001918YS02001915 CONDUIT    455.15     0  02:11      0.58    0.25    1.00
  YS02001920YS02001918 CONDUIT    454.77     0  02:11      0.65    0.44    1.00
  YS02001923YS02001920 CONDUIT    450.92     0  02:11      0.71    0.20    1.00
  YS02001926YS02001923 CONDUIT    424.65     0  02:10      0.97    0.61    1.00
  YS02001929YS02001926 CONDUIT    420.94     0  02:10      1.14    0.20    1.00
  YS02006553YS02006556 CONDUIT    800.39     0  02:25      1.02    0.68    1.00
  YS02006556YS02006558 CONDUIT    803.28     0  02:25      1.02    0.63    1.00
  YS02006558YS02006561 CONDUIT   1161.48     0  02:12      4.11    2.57    1.00
  YS02006561YS02001783 CONDUIT   1161.34     0  02:12      2.31    0.60    1.00
  YS02163301YS02001633 CONDUIT    922.88     0  02:07      1.18    0.87    1.00
  YS02163601YS02164001 CONDUIT   1344.30     0  02:07      1.71    1.19    1.00
  YS02164001YS02001641 CONDUIT   1344.36     0  02:07      1.71    1.84    1.00
  CC-R1                PUMP       683.00     0  00:00              1.00
  CC-R2                PUMP       683.00     0  00:00              1.00
  CC-S1                PUMP       200.00     0  00:00              1.00
  CC-S2                PUMP       200.00     0  00:00              1.00
  JK-R1                PUMP      1000.00     0  00:00              1.00
  JK-R2                PUMP      1000.00     0  00:00              1.00
  JK-S                 PUMP       300.00     0  00:00              1.00
  XR-1                 PUMP        95.00     0  00:00              1.00
  XR-2                 PUMP        95.00     0  00:00              1.00
  XR-3                 PUMP        95.00     0  00:00              1.00
  XR-4                 PUMP        95.00     0  00:00              1.00
  
  
  ***************************
  Flow Classification Summary
  ***************************
  
  -------------------------------------------------------------------------------------
                      Adjusted    ---------- Fraction of Time in Flow Class ---------- 
                       /Actual         Up    Down  Sub   Sup   Up    Down  Norm  Inlet 
  Conduit               Length    Dry  Dry   Dry   Crit  Crit  Crit  Crit  Ltd   Ctrl  
  -------------------------------------------------------------------------------------
  1                       1.00   0.00  0.00  0.00  0.00  1.00  0.00  0.00  0.12  0.00
  WS02001211WS02001212    1.00   0.00  0.02  0.00  0.98  0.00  0.00  0.00  0.00  0.00
  WS02001212WS02001213    1.00   0.02  0.00  0.00  0.21  0.00  0.77  0.00  0.00  0.00
  WS02001213WS02003059    1.00   0.00  0.01  0.00  0.99  0.00  0.00  0.00  0.00  0.00
  WS02003059WS02003060    1.00   0.00  0.00  0.00  1.00  0.00  0.00  0.00  0.03  0.00
  WS02003060WS02003069    1.00   0.00  0.00  0.00  0.98  0.02  0.00  0.00  0.73  0.00
  WS02003066WSF200        1.00   0.13  0.00  0.00  0.00  0.87  0.00  0.00  0.71  0.00
  WS02003067WS02003066    1.00   0.10  0.02  0.00  0.88  0.00  0.00  0.00  0.00  0.00
  WS02003069WS02003072    1.00   0.00  0.00  0.00  1.00  0.00  0.00  0.00  0.77  0.00
  WS02003072WS02003073    1.00   0.00  0.00  0.00  0.00  0.00  0.00  1.00  0.00  0.00
  WS02004138WS02004139    1.00   0.00  0.00  0.00  0.97  0.01  0.00  0.02  0.98  0.00
  WS02004139WS02001211    1.00   0.00  0.00  0.00  0.99  0.00  0.00  0.00  0.00  0.00
  WS02004401WS02004402    1.00   0.02  0.00  0.00  0.98  0.00  0.00  0.00  0.00  0.00
  WS02004402WS02004403    1.00   0.02  0.00  0.00  0.97  0.00  0.00  0.00  0.00  0.00
  WS02004403WS02004404    1.00   0.00  0.03  0.00  0.97  0.00  0.00  0.00  0.00  0.00
  WS02004404WS02004405    1.00   0.00  0.00  0.00  1.00  0.00  0.00  0.00  0.00  0.00
  WS02004405WS02004406    1.00   0.00  0.00  0.00  1.00  0.00  0.00  0.00  0.00  0.00
  WS02004406WS02004407    1.00   0.00  0.05  0.00  0.95  0.00  0.00  0.00  0.00  0.00
  WS02004407WS02004409    1.00   0.05  0.00  0.00  0.94  0.01  0.00  0.00  0.94  0.00
  WS02004409WS02004410    1.00   0.05  0.00  0.00  0.95  0.00  0.00  0.00  0.03  0.00
  WS02004410WS02004411    1.00   0.05  0.00  0.00  0.95  0.00  0.00  0.00  0.01  0.00
  WS02004411WS02004412    1.00   0.05  0.00  0.00  0.95  0.00  0.00  0.00  0.00  0.00
  WS02004412WS02004413    1.00   0.05  0.00  0.00  0.94  0.00  0.00  0.00  0.01  0.00
  WS02004413WS02003067    1.00   0.06  0.04  0.00  0.00  0.00  0.90  0.00  0.00  0.00
  WS02006109WS02006110    1.00   0.00  0.01  0.00  0.98  0.00  0.01  0.00  0.00  0.00
  WS02006110WS02006113    1.00   0.01  0.01  0.00  0.98  0.00  0.00  0.00  0.00  0.00
  WS02006111WS02006112    1.00   0.02  0.00  0.00  0.98  0.00  0.00  0.00  0.98  0.00
  WS02006112WS02006115    1.00   0.02  0.00  0.00  0.97  0.00  0.00  0.00  0.00  0.00
  WS02006113WS02006111    1.00   0.02  0.00  0.00  0.00  0.98  0.00  0.00  0.08  0.00
  WS02006115WS02006116    1.00   0.02  0.00  0.00  0.97  0.00  0.00  0.01  0.00  0.00
  WS02006116WS02004401    1.00   0.02  0.00  0.00  0.98  0.00  0.00  0.00  0.00  0.00
  WS02006228WS02006109    1.00   0.00  0.00  0.00  1.00  0.00  0.00  0.00  0.00  0.00
  WS02006229WS02006228    1.00   0.00  0.00  0.00  0.99  0.00  0.00  0.01  0.00  0.00
  WS02006230WS02006229    1.00   0.00  0.00  0.00  0.99  0.00  0.00  0.01  0.00  0.00
  WS02006231WS02006230    1.00   0.00  0.00  0.00  0.20  0.00  0.80  0.00  0.00  0.00
  WS02006232WS02006231    1.00   0.00  0.00  0.00  0.99  0.00  0.01  0.00  0.00  0.00
  WS02006234WS02006232    1.00   0.00  0.00  0.00  1.00  0.00  0.00  0.00  0.50  0.00
  WS02006235WS02006234    1.00   0.00  0.00  0.00  0.46  0.00  0.54  0.00  0.00  0.00
  WS02006238WS02006235    1.00   0.00  0.00  0.00  1.00  0.00  0.00  0.00  0.00  0.00
  WS02006239WS02006238    1.00   0.00  0.00  0.00  1.00  0.00  0.00  0.00  0.60  0.00
  WS02006240WS02006239    1.00   0.00  0.00  0.00  0.36  0.00  0.00  0.64  0.01  0.00
  WS02006242WS02006240    1.00   0.00  0.00  0.00  1.00  0.00  0.00  0.00  0.00  0.00
  WS02006243WS02006242    1.00   0.00  0.00  0.00  0.99  0.00  0.00  0.01  0.74  0.00
  WS02006245WS02006243    1.00   0.00  0.00  0.00  0.41  0.00  0.00  0.59  0.00  0.00
  WS02006247WS02006245    1.00   0.00  0.00  0.00  0.99  0.00  0.00  0.01  0.00  0.00
  WS02006248WS02006247    1.00   0.00  0.00  0.00  0.99  0.00  0.00  0.01  0.18  0.00
  WS02006249WS02006248    1.00   0.00  0.00  0.00  0.30  0.00  0.70  0.00  0.00  0.00
  WS02006251WS02006249    1.00   0.00  0.00  0.00  0.99  0.01  0.00  0.00  0.73  0.00
  WS02006252WS02006251    1.00   0.00  0.74  0.00  0.15  0.00  0.12  0.00  0.00  0.00
  WS02006256WS02006235    1.00   0.00  0.00  0.00  1.00  0.00  0.00  0.00  0.00  0.00
  WSF200WS02003060        1.00   0.00  0.13  0.00  0.68  0.19  0.00  0.00  0.67  0.00
  YS02001580YS02001583    1.00   0.26  0.57  0.00  0.17  0.00  0.00  0.00  0.66  0.00
  YS02001583YS02001586    1.00   0.48  0.29  0.00  0.23  0.00  0.00  0.00  0.66  0.00
  YS02001586YS02001590    1.00   0.13  0.00  0.00  0.40  0.04  0.00  0.44  0.35  0.00
  YS02001590YS02001593    1.00   0.13  0.01  0.00  0.10  0.00  0.77  0.00  0.00  0.00
  YS02001593YS02001596    1.00   0.13  0.00  0.00  0.11  0.01  0.00  0.74  0.02  0.00
  YS02001596YS02001600    1.00   0.14  0.00  0.00  0.18  0.01  0.00  0.67  0.05  0.00
  YS02001600YS02001601    1.00   0.13  0.01  0.00  0.86  0.00  0.00  0.00  0.62  0.00
  YS02001601YS02001602    1.00   0.13  0.01  0.00  0.87  0.00  0.00  0.00  0.00  0.00
  YS02001602YS02001605    1.00   0.13  0.00  0.00  0.86  0.00  0.00  0.00  0.00  0.00
  YS02001605YS02001607    1.00   0.14  0.00  0.00  0.86  0.00  0.00  0.00  0.00  0.00
  YS02001607YS02001610    1.00   0.13  0.01  0.00  0.86  0.00  0.00  0.00  0.01  0.00
  YS02001610YS02001613    1.00   0.13  0.00  0.00  0.87  0.00  0.00  0.00  0.00  0.00
  YS02001613YS02001616    1.00   0.13  0.00  0.00  0.87  0.00  0.00  0.00  0.00  0.00
  YS02001616YS02001619    1.00   0.13  0.00  0.00  0.87  0.00  0.00  0.00  0.00  0.00
  YS02001619YS02001622    1.00   0.13  0.00  0.00  0.87  0.00  0.00  0.00  0.34  0.00
  YS02001622YS02001625    1.00   0.13  0.00  0.00  0.87  0.00  0.00  0.00  0.04  0.00
  YS02001625YS02001629    1.00   0.13  0.05  0.00  0.14  0.00  0.68  0.00  0.00  0.00
  YS02001629YS02163301    1.00   0.15  0.01  0.00  0.84  0.00  0.00  0.00  0.00  0.00
  YS02001633YS02163601    1.00   0.00  0.01  0.00  0.99  0.00  0.00  0.00  0.15  0.00
  YS02001641YS02001644    1.00   0.00  0.01  0.00  0.99  0.00  0.00  0.00  0.00  0.00
  YS02001644YS02001647    1.00   0.00  0.17  0.00  0.83  0.00  0.00  0.00  0.00  0.00
  YS02001647YS02001649    1.00   0.00  0.17  0.00  0.55  0.27  0.00  0.00  0.59  0.00
  YS02001649YS02001757    1.00   0.00  0.00  0.00  0.70  0.30  0.00  0.00  0.52  0.00
  YS02001652YS02001649    1.00   0.00  0.00  0.00  0.97  0.03  0.00  0.00  0.77  0.00
  YS02001655YS02001652    1.00   0.00  0.00  0.00  0.16  0.01  0.00  0.83  0.04  0.00
  YS02001658YS02001655    1.00   0.00  0.14  0.00  0.66  0.20  0.00  0.00  0.72  0.00
  YS02001661YS02001658    1.00   0.14  0.00  0.00  0.52  0.34  0.00  0.00  0.73  0.00
  YS02001664YS02001661    1.00   0.13  0.00  0.00  0.78  0.10  0.00  0.00  0.86  0.00
  YS02001745YS02001748    1.00   0.00  0.00  0.00  0.08  0.01  0.00  0.91  0.04  0.00
  YS02001748YS02001751    1.00   0.00  0.00  0.00  0.82  0.18  0.00  0.00  0.77  0.00
  YS02001751YS02001754    1.00   0.00  0.00  0.00  0.14  0.00  0.00  0.86  0.02  0.00
  YS02001754YS02001757    1.00   0.00  0.00  0.00  1.00  0.00  0.00  0.00  0.85  0.00
  YS02001757CaochengTiaoxuchi    1.00   0.00  0.00  0.00  1.00  0.00  0.00  0.00  0.85  0.00
  YS02001759YS02001757    1.00   0.00  0.00  0.00  1.00  0.00  0.00  0.00  0.63  0.00
  YS02001762YS02001759    1.00   0.00  0.00  0.00  1.00  0.00  0.00  0.00  0.04  0.00
  YS02001765YS02001762    1.00   0.00  0.00  0.00  1.00  0.00  0.00  0.00  0.75  0.00
  YS02001767YS02001765    1.00   0.00  0.00  0.00  1.00  0.00  0.00  0.00  0.00  0.00
  YS02001770YS02001767    1.00   0.00  0.00  0.00  1.00  0.00  0.00  0.00  0.00  0.00
  YS02001774YS02001770    1.00   0.00  0.13  0.00  0.60  0.00  0.26  0.00  0.03  0.00
  YS02001779YS02001774    1.00   0.00  0.00  0.00  1.00  0.00  0.00  0.00  0.79  0.00
  YS02001783YS02001784    1.00   0.00  0.18  0.00  0.82  0.00  0.00  0.00  0.57  0.00
  YS02001784YS02001785    1.00   0.00  0.00  0.00  1.00  0.00  0.00  0.00  0.17  0.00
  YS02001786YS02001788    1.00   0.00  0.00  0.00  0.80  0.20  0.00  0.00  0.00  0.00
  YS02001788YS02001790    1.00   0.00  0.00  0.00  0.20  0.80  0.00  0.00  0.82  0.00
  YS02001790YS02001791    1.00   0.00  0.00  0.00  0.01  0.99  0.00  0.00  0.16  0.00
  YS02001791YS02001793    1.00   0.00  0.00  0.00  0.00  1.00  0.00  0.00  0.01  0.00
  YS02001793JiankangQianchi    1.00   0.00  0.00  0.00  0.99  0.00  0.00  0.00  0.96  0.00
  YS02001882YS02001884    1.00   0.15  0.01  0.00  0.84  0.00  0.00  0.00  0.00  0.00
  YS02001884YS02001887    1.00   0.06  0.05  0.00  0.89  0.00  0.00  0.00  0.00  0.00
  YS02001887YS02001890    1.00   0.00  0.00  0.00  0.97  0.00  0.03  0.00  0.00  0.00
  YS02001890YS02001895    1.00   0.00  0.16  0.00  0.84  0.00  0.00  0.00  0.00  0.00
  YS02001895YS02001898    1.00   0.17  0.00  0.00  0.82  0.00  0.02  0.00  0.00  0.00
  YS02001898YS02001901    1.00   0.17  0.00  0.00  0.83  0.00  0.00  0.00  0.01  0.00
  YS02001901YS02001904    1.00   0.17  0.00  0.00  0.83  0.00  0.00  0.00  0.00  0.00
  YS02001904YS02001907    1.00   0.00  0.16  0.00  0.83  0.00  0.00  0.00  0.00  0.00
  YS02001907YS02006553    1.00   0.00  0.02  0.00  0.98  0.00  0.00  0.00  0.00  0.00
  YS02001910YS02001907    1.00   0.00  0.00  0.00  0.97  0.00  0.00  0.03  0.12  0.00
  YS02001915YS02001910    1.00   0.00  0.00  0.00  0.97  0.03  0.00  0.00  0.16  0.00
  YS02001918YS02001915    1.00   0.00  0.01  0.00  0.98  0.02  0.00  0.00  0.77  0.00
  YS02001920YS02001918    1.00   0.00  0.01  0.00  0.99  0.00  0.00  0.00  0.00  0.00
  YS02001923YS02001920    1.00   0.00  0.00  0.00  1.00  0.00  0.00  0.00  0.94  0.00
  YS02001926YS02001923    1.00   0.00  0.07  0.00  0.04  0.00  0.88  0.00  0.00  0.00
  YS02001929YS02001926    1.00   0.00  0.13  0.00  0.87  0.00  0.00  0.00  0.84  0.00
  YS02006553YS02006556    1.00   0.01  0.00  0.00  0.99  0.00  0.00  0.00  0.03  0.00
  YS02006556YS02006558    1.00   0.00  0.00  0.00  1.00  0.00  0.00  0.00  0.00  0.00
  YS02006558YS02006561    1.00   0.18  0.00  0.00  0.04  0.78  0.00  0.00  0.18  0.00
  YS02006561YS02001783    1.00   0.18  0.00  0.00  0.07  0.75  0.00  0.00  0.71  0.00
  YS02163301YS02001633    1.00   0.00  0.15  0.00  0.85  0.00  0.00  0.00  0.00  0.00
  YS02163601YS02164001    1.00   0.00  0.08  0.00  0.92  0.00  0.00  0.00  0.00  0.00
  YS02164001YS02001641    1.00   0.01  0.07  0.00  0.92  0.00  0.00  0.00  0.05  0.00
  
  
  *************************
  Conduit Surcharge Summary
  *************************
  
  ----------------------------------------------------------------------------
                                                           Hours        Hours 
                         --------- Hours Full --------   Above Full   Capacity
  Conduit                Both Ends  Upstream  Dnstream   Normal Flow   Limited
  ----------------------------------------------------------------------------
  WS02003072WS02003073        0.01      0.01      0.01      1.64         0.01
  WS02004404WS02004405        0.01      0.01      0.01      1.89         0.01
  WS02004405WS02004406        0.01      0.01      0.01      1.03         0.01
  WS02006109WS02006110        1.09      1.09      1.55      1.14         0.01
  WS02006110WS02006113        0.01      0.01      1.54      0.01         0.01
  WS02006111WS02006112        0.01      0.01      1.59      0.01         0.01
  WS02006112WS02006115        0.01      0.01      1.06      0.01         0.01
  WS02006228WS02006109        1.51      1.55      1.51      1.69         1.51
  WS02006229WS02006228        1.50      1.52      1.50      1.63         1.50
  WS02006230WS02006229        1.59      1.61      1.59      2.23         1.59
  WS02006231WS02006230        1.11      1.11      1.18      2.02         0.01
  WS02006232WS02006231        1.15      1.15      1.57      1.19         0.01
  WS02006234WS02006232        1.46      1.46      1.57      1.18         1.18
  WS02006235WS02006234        1.39      1.39      1.50      1.94         0.01
  WS02006238WS02006235        1.52      1.52      1.56      0.01         0.01
  WS02006239WS02006238        1.50      1.51      1.54      1.51         1.34
  WS02006240WS02006239        1.48      1.49      1.48      1.51         1.24
  WS02006242WS02006240        1.48      1.48      1.50      1.56         0.01
  WS02006243WS02006242        1.49      1.49      1.50      0.01         0.03
  WS02006245WS02006243        1.48      1.48      1.48      0.41         0.50
  WS02006247WS02006245        1.48      1.48      1.48      1.76         1.48
  WS02006248WS02006247        1.47      1.47      1.48      0.01         0.03
  WS02006249WS02006248        1.47      1.47      1.47      1.75         0.01
  WS02006251WS02006249        1.47      1.47      1.47      1.55         1.42
  WS02006252WS02006251        1.62      1.62      1.62      1.62         0.01
  WS02006256WS02006235        1.96      1.98      3.26      1.41         0.01
  YS02001580YS02001583        0.47      0.47      0.52      0.01         0.01
  YS02001583YS02001586        0.48      0.48      0.59      0.01         0.01
  YS02001586YS02001590        0.59      0.59      0.66      0.01         0.01
  YS02001590YS02001593        0.66      0.66      0.68      0.69         0.01
  YS02001593YS02001596        0.67      0.67      0.76      0.01         0.01
  YS02001596YS02001600        0.81      0.81      0.91      0.01         0.01
  YS02001600YS02001601        0.97      0.97      1.28      0.01         0.01
  YS02001601YS02001602        1.17      1.17      1.32      0.91         0.01
  YS02001602YS02001605        1.11      1.11      1.17      2.12         0.01
  YS02001605YS02001607        1.06      1.11      1.06      1.25         1.06
  YS02001607YS02001610        0.64      0.64      0.66      0.01         0.01
  YS02001610YS02001613        0.63      0.63      0.66      0.01         0.01
  YS02001613YS02001616        0.59      0.59      0.63      0.01         0.01
  YS02001616YS02001619        0.58      0.58      0.59      0.01         0.01
  YS02001619YS02001622        0.58      0.58      0.58      0.66         0.55
  YS02001622YS02001625        0.58      0.58      0.75      0.01         0.01
  YS02001625YS02001629        0.54      0.54      0.75      0.01         0.01
  YS02001629YS02163301        0.75      0.75      0.76      0.07         0.12
  YS02001633YS02163601        0.78      0.78      0.81      0.28         0.28
  YS02001641YS02001644        0.69      0.72      0.69      1.36         0.68
  YS02001644YS02001647        0.51      0.51      0.69      0.01         0.01
  YS02001647YS02001649        0.51      0.51      0.61      0.01         0.01
  YS02001649YS02001757        0.61      0.61      0.68      0.06         0.03
  YS02001652YS02001649        0.46      0.46      0.61      0.01         0.01
  YS02001655YS02001652        0.31      0.31      0.44      0.01         0.01
  YS02001658YS02001655        0.16      0.16      0.31      0.01         0.01
  YS02001661YS02001658        0.01      0.01      0.16      0.01         0.01
  YS02001664YS02001661        0.01      0.01      0.04      0.01         0.01
  YS02001745YS02001748        0.01      0.01      0.12      0.01         0.01
  YS02001748YS02001751        0.15      0.15      0.22      0.01         0.01
  YS02001751YS02001754        0.22      0.22      0.36      0.01         0.01
  YS02001754YS02001757        0.39      0.39      0.68      0.01         0.01
  YS02001757CaochengTiaoxuchi        0.68      0.68      1.24      0.25         0.25
  YS02001759YS02001757        0.58      0.58      0.68      0.01         0.01
  YS02001762YS02001759        0.55      0.55      0.58      0.01         0.01
  YS02001765YS02001762        0.51      0.51      0.55      0.01         0.01
  YS02001767YS02001765        0.49      0.49      0.51      0.01         0.02
  YS02001770YS02001767        0.48      0.48      0.49      0.38         0.32
  YS02001774YS02001770        0.46      0.46      0.54      0.01         0.01
  YS02001779YS02001774        0.36      0.36      0.54      0.01         0.01
  YS02001783YS02001784        0.37      0.40      0.37      0.53         0.37
  YS02001784YS02001785        0.28      0.37      0.28      0.74         0.28
  YS02001786YS02001788        0.01      0.28      0.01      0.63         0.01
  YS02001790YS02001791        0.01      0.01      0.01      0.36         0.01
  YS02001793JiankangQianchi        0.01      0.01      7.68      0.01         0.01
  YS02001882YS02001884        0.35      0.35      0.36      0.01         0.01
  YS02001884YS02001887        0.38      0.38      0.39      0.01         0.01
  YS02001887YS02001890        0.40      0.40      0.41      0.06         0.01
  YS02001890YS02001895        0.34      0.34      0.43      0.01         0.01
  YS02001895YS02001898        0.33      0.33      0.34      0.01         0.01
  YS02001898YS02001901        0.34      0.34      0.38      0.01         0.01
  YS02001901YS02001904        0.37      0.37      0.38      0.01         0.01
  YS02001904YS02001907        0.37      0.37      0.61      0.01         0.01
  YS02001907YS02006553        0.75      0.75      0.82      0.01         0.01
  YS02001910YS02001907        0.42      0.42      0.60      0.01         0.01
  YS02001915YS02001910        0.34      0.34      0.42      0.01         0.01
  YS02001918YS02001915        0.27      0.27      0.34      0.01         0.01
  YS02001920YS02001918        0.27      0.27      0.28      0.01         0.01
  YS02001923YS02001920        0.23      0.23      0.28      0.01         0.01
  YS02001926YS02001923        0.02      0.02      0.04      0.01         0.01
  YS02001929YS02001926        0.01      0.01      0.04      0.01         0.01
  YS02006553YS02006556        0.51      0.51      0.61      0.01         0.01
  YS02006556YS02006558        0.56      0.56      0.63      0.01         0.01
  YS02006558YS02006561        0.30      0.50      0.30      0.70         0.30
  YS02006561YS02001783        0.23      0.23      0.40      0.01         0.01
  YS02163301YS02001633        0.76      0.76      0.80      0.01         0.01
  YS02163601YS02164001        0.73      0.73      0.81      0.07         0.01
  YS02164001YS02001641        0.72      0.73      0.72      0.61         0.54
  
  
  ***************
  Pumping Summary
  ***************
  
  ---------------------------------------------------------------------------------------------------------
                                                  Min       Avg       Max     Total     Power    % Time Off
                        Percent   Number of      Flow      Flow      Flow    Volume     Usage    Pump Curve
  Pump                 Utilized   Start-Ups       LPS       LPS       LPS  10^6 ltr     Kw-hr    Low   High
  ---------------------------------------------------------------------------------------------------------
  CC-R1                   18.78          10      0.00    683.00    683.00     3.695     68.22    0.0   24.7
  CC-R2                   17.65          10      0.00    683.00    683.00     3.471     64.09    0.0   26.3
  CC-S1                   22.61          10      0.00    200.00    200.00     1.302      7.56    0.0    0.0
  CC-S2                   20.21          10      0.00    200.00    200.00     1.164      6.72    0.0    0.0
  JK-R1                    6.09          10      0.00   1000.00   1000.00     1.755     20.94    0.0    0.0
  JK-R2                    0.16           1      0.00   1000.00   1000.00     0.047      0.36    0.0    0.0
  JK-S                    17.66           7      0.00    300.00    300.00     1.526     23.14    0.0    0.0
  XR-1                    97.91           2      0.00     95.00     95.00     2.679      9.60    0.0    0.0
  XR-2                    93.94           2      0.00     95.00     95.00     2.570      8.76    0.0    0.0
  XR-3                     0.00           1      0.00     95.00     95.00     0.000      0.00    0.0    0.0
  XR-4                     0.00           1      0.00     95.00     95.00     0.000      0.00    0.0    0.0
  

  Analysis begun on:  Wed Nov  5 16:31:30 2025
  Analysis ended on:  Wed Nov  5 16:31:33 2025
  Total elapsed time: 00:00:03