
  EPA STORM WATER MANAGEMENT MODEL - VERSION 5.2 (Build 5.2.4)
  PYSWMM TOOLKIT API - VERSION v1.0 (2023-11-27)
  ------------------------------------------------------------

  WARNING 04: minimum elevation drop used for Conduit WS02004404WS02004405
  WARNING 03: negative offset ignored for Link YS02001904YS02001907
  
  ****************
  Analysis Options
  ****************
  Flow Units ............... LPS
  Process Models:
    Rainfall/Runoff ........ YES
    RDII ................... NO
    Snowmelt ............... NO
    Groundwater ............ NO
    Flow Routing ........... YES
    Ponding Allowed ........ NO
    Water Quality .......... NO
  Infiltration Method ...... HORTON
  Flow Routing Method ...... DYNWAVE
  Surcharge Method ......... EXTRAN
  Starting Date ............ 08/28/2015 08:00:00
  Ending Date .............. 08/28/2015 16:00:00
  Antecedent Dry Days ...... 8.0
  Report Time Step ......... 00:01:00
  Wet Time Step ............ 00:01:00
  Dry Time Step ............ 00:01:00
  Routing Time Step ........ 30.00 sec
  Variable Time Step ....... YES
  Maximum Trials ........... 8
  Number of Threads ........ 4
  Head Tolerance ........... 0.001500 m
  
  
  **************************        Volume         Depth
  Runoff Quantity Continuity     hectare-m            mm
  **************************     ---------       -------
  Initial LID Storage ......         0.049         1.488
  Total Precipitation ......         1.262        38.059
  Evaporation Loss .........         0.000         0.000
  Infiltration Loss ........         0.070         2.119
  Surface Runoff ...........         0.901        27.155
  Final Storage ............         0.341        10.282
  Continuity Error (%) .....        -0.022
  
  
  **************************        Volume        Volume
  Flow Routing Continuity        hectare-m      10^6 ltr
  **************************     ---------     ---------
  Dry Weather Inflow .......         0.602         6.020
  Wet Weather Inflow .......         0.901         9.006
  Groundwater Inflow .......         0.000         0.000
  RDII Inflow ..............         0.000         0.000
  External Inflow ..........         0.105         1.045
  External Outflow .........         1.498        14.983
  Flooding Loss ............         0.083         0.832
  Evaporation Loss .........         0.000         0.000
  Exfiltration Loss ........         0.000         0.000
  Initial Stored Volume ....         0.303         3.031
  Final Stored Volume ......         0.335         3.346
  Continuity Error (%) .....        -0.305
  
  
  *************************
  Highest Continuity Errors
  *************************
  Node YS02001583 (-10.54%)
  Node YS02001884 (4.98%)
  Node YS02001774 (1.86%)
  Node YS02001907 (1.06%)
  
  
  ***************************
  Time-Step Critical Elements
  ***************************
  Link WS02004404WS02004405 (35.90%)
  Link WS02006238WS02006235 (23.30%)
  Link WS02006252WS02006251 (7.52%)
  Link YS02001791YS02001793 (6.74%)
  Link WS02003066WSF200 (6.53%)
  
  
  ********************************
  Highest Flow Instability Indexes
  ********************************
  Link WS02006113WS02006111 (26)
  Link WS02006111WS02006112 (14)
  Link WS02006252WS02006251 (14)
  Link WS02006256WS02006235 (13)
  Link WS02006238WS02006235 (12)
  
  
  *********************************
  Most Frequent Nonconverging Nodes
  *********************************
  Node CC-1 (14.93%)
  Node CC-2 (14.93%)
  Node JK-1 (14.93%)
  Node JK-2 (14.93%)
  Node WSC (14.93%)
  
  
  *************************
  Routing Time Step Summary
  *************************
  Minimum Time Step           :     0.00 sec
  Average Time Step           :     3.73 sec
  Maximum Time Step           :     7.04 sec
  % of Time in Steady State   :     0.00
  Average Iterations per Step :     3.23
  % of Steps Not Converging   :    14.93
  Time Step Frequencies       :
     30.000 - 13.228 sec      :     0.00 %
     13.228 -  5.833 sec      :    28.79 %
      5.833 -  2.572 sec      :    37.68 %
      2.572 -  1.134 sec      :    19.36 %
      1.134 -  0.500 sec      :    14.17 %
  
  
  ***************************
  Subcatchment Runoff Summary
  ***************************
  
  ------------------------------------------------------------------------------------------------------------------------------
                            Total      Total      Total      Total     Imperv       Perv      Total       Total     Peak  Runoff
                           Precip      Runon       Evap      Infil     Runoff     Runoff     Runoff      Runoff   Runoff   Coeff
  Subcatchment                 mm         mm         mm         mm         mm         mm         mm    10^6 ltr      LPS
  ------------------------------------------------------------------------------------------------------------------------------
  sub60                     38.06       0.00       0.00       1.28      24.92       2.25      27.17        0.36   253.66   0.714
  sub61                     38.06       0.00       0.00       1.96      24.90       3.33      28.23        0.52   365.94   0.742
  sub62                     38.06       0.00       0.00       0.87      26.54       1.53      28.06        0.77   500.44   0.737
  sub63                     38.06       0.00       0.00       3.58      21.33       5.46      26.78        0.61   398.59   0.704
  sub64                     38.06       0.00       0.00       1.72      24.27       2.73      27.00        0.65   396.78   0.710
  sub65                     38.06       0.00       0.00       1.58      26.19       2.49      28.68        0.79   461.35   0.754
  sub66                     38.06       0.00       0.00       4.14      20.60       4.61      25.21        1.18   568.09   0.662
  sub67                     38.06       0.00       0.00       0.87      27.22       1.59      28.80        0.54   397.76   0.757
  sub68                     38.06       0.00       0.00       1.50      24.03       2.56      26.59        0.73   498.30   0.699
  sub69                     38.06       0.00       0.00       1.34      25.56       3.19      28.75        1.06   604.03   0.755
  sub70                     38.06       0.00       0.00       4.46      20.46       6.13      26.59        0.77   329.68   0.699
  sub71                     38.06       0.00       0.00       0.80      24.10       1.38      25.48        0.67   406.67   0.669
  sub72                     38.06       0.00       0.00       0.76      26.02       1.27      27.30        0.38   205.22   0.717
  

  ***********************
  LID Performance Summary
  ***********************

  --------------------------------------------------------------------------------------------------------------------
                                         Total      Evap     Infil   Surface    Drain    Initial     Final  Continuity
                                        Inflow      Loss      Loss   Outflow   Outflow   Storage   Storage       Error
  Subcatchment      LID Control             mm        mm        mm        mm        mm        mm        mm           %
  --------------------------------------------------------------------------------------------------------------------
  sub60             GreenRoof            38.06      0.00      0.00      0.00      0.00      7.05     45.12       -0.02
  sub61             GreenRoof            38.06      0.00      0.00      0.00      0.00      7.05     45.12       -0.02
  sub62             GreenRoof            38.06      0.00      0.00      0.00      0.00      7.05     45.12       -0.02
  sub63             GreenRoof            38.06      0.00      0.00      0.00      0.00      7.05     45.12       -0.02
  sub64             GreenRoof            38.06      0.00      0.00      0.00      0.00      7.05     45.12       -0.02
  sub65             GreenRoof            38.06      0.00      0.00      0.00      0.00      7.05     45.12       -0.02
  sub66             GreenRoof            38.06      0.00      0.00      0.00      0.00      7.05     45.12       -0.02
  sub67             GreenRoof            38.06      0.00      0.00      0.00      0.00      7.05     45.12       -0.02
  sub68             GreenRoof            38.06      0.00      0.00      0.00      0.00      7.05     45.12       -0.02
  sub69             GreenRoof            38.06      0.00      0.00      0.00      0.00      7.05     45.12       -0.02
  sub70             GreenRoof            38.06      0.00      0.00      0.00      0.00      7.05     45.12       -0.02
  sub71             GreenRoof            38.06      0.00      0.00      0.00      0.00      7.05     45.12       -0.02
  sub72             GreenRoof            38.06      0.00      0.00      0.00      0.00      7.05     45.12       -0.02
  
  ******************
  Node Depth Summary
  ******************
  
  ---------------------------------------------------------------------------------
                                 Average  Maximum  Maximum  Time of Max    Reported
                                   Depth    Depth      HGL   Occurrence   Max Depth
  Node                 Type       Meters   Meters   Meters  days hr:min      Meters
  ---------------------------------------------------------------------------------
  WS02001211           JUNCTION     0.59     0.64     5.48     0  02:46        0.64
  WS02001212           JUNCTION     0.33     0.38     5.45     0  02:45        0.38
  WS02001213           JUNCTION     0.52     0.65     5.41     0  02:44        0.65
  WS02003059           JUNCTION     0.58     0.72     5.40     0  02:44        0.72
  WS02003060           JUNCTION     0.28     0.45     5.38     0  02:43        0.45
  WS02003066           JUNCTION     0.14     0.30     5.85     0  02:43        0.30
  WS02003067           JUNCTION     0.40     0.70     6.02     0  02:43        0.70
  WS02003069           JUNCTION     0.32     0.51     5.09     0  02:44        0.51
  WS02003072           JUNCTION     0.38     0.57     4.94     0  02:44        0.57
  WS02003073           JUNCTION     0.22     0.35     4.41     0  02:45        0.35
  WS02004138           JUNCTION     0.13     0.14     7.39     0  00:29        0.14
  WS02004139           JUNCTION     0.53     0.58     5.49     0  02:46        0.58
  WS02004401           JUNCTION     0.48     0.85     6.85     0  02:40        0.85
  WS02004402           JUNCTION     0.52     0.88     6.84     0  02:40        0.88
  WS02004403           JUNCTION     0.54     0.89     6.82     0  02:41        0.89
  WS02004404           JUNCTION     0.62     0.96     6.81     0  02:41        0.96
  WS02004405           JUNCTION     0.61     0.96     6.81     0  02:41        0.95
  WS02004406           JUNCTION     0.63     0.96     6.79     0  02:41        0.96
  WS02004407           JUNCTION     0.12     0.30     6.61     0  02:41        0.30
  WS02004409           JUNCTION     0.27     0.67     6.44     0  02:41        0.67
  WS02004410           JUNCTION     0.30     0.68     6.40     0  02:42        0.68
  WS02004411           JUNCTION     0.33     0.69     6.37     0  02:42        0.69
  WS02004412           JUNCTION     0.35     0.70     6.34     0  02:42        0.70
  WS02004413           JUNCTION     0.51     0.86     6.33     0  02:42        0.86
  WS02006109           JUNCTION     0.53     1.15     7.76     0  02:23        1.02
  WS02006110           JUNCTION     0.54     1.19     7.78     0  02:23        0.98
  WS02006111           JUNCTION     0.13     0.29     6.99     0  02:09        0.29
  WS02006112           JUNCTION     0.63     1.09     6.97     0  02:17        1.06
  WS02006113           JUNCTION     0.19     0.46     7.35     0  03:00        0.46
  WS02006115           JUNCTION     0.36     0.75     6.89     0  02:40        0.75
  WS02006116           JUNCTION     0.45     0.83     6.87     0  02:40        0.83
  WS02006228           JUNCTION     0.51     1.14     7.79     0  02:17        1.11
  WS02006229           JUNCTION     0.48     1.16     7.86     0  02:23        1.14
  WS02006230           JUNCTION     0.47     1.32     8.07     0  02:16        1.27
  WS02006231           JUNCTION     0.29     1.86     8.99     0  02:23        1.86
  WS02006232           JUNCTION     0.41     1.31     8.34     0  02:22        1.26
  WS02006234           JUNCTION     0.33     1.47     8.62     0  02:10        1.31
  WS02006235           JUNCTION     0.37     1.63     8.79     0  02:22        1.41
  WS02006238           JUNCTION     0.39     1.68     8.82     0  02:22        1.45
  WS02006239           JUNCTION     0.35     1.61     8.82     0  02:22        1.42
  WS02006240           JUNCTION     0.33     1.55     8.85     0  02:22        1.39
  WS02006242           JUNCTION     0.38     1.55     8.82     0  02:22        1.46
  WS02006243           JUNCTION     0.31     1.39     8.81     0  02:22        1.34
  WS02006245           JUNCTION     0.32     1.30     8.78     0  02:22        1.28
  WS02006247           JUNCTION     0.33     1.25     8.75     0  02:22        1.24
  WS02006248           JUNCTION     0.31     1.10     8.69     0  02:06        1.10
  WS02006249           JUNCTION     0.33     1.09     8.69     0  02:07        1.09
  WS02006251           JUNCTION     0.33     1.36     9.03     0  02:22        1.28
  WS02006252           JUNCTION     0.23     1.50     9.74     0  00:00        0.84
  WS02006256           JUNCTION     0.89     2.35     9.28     0  00:00        2.35
  WSF200               JUNCTION     0.12     0.31     5.54     0  02:43        0.31
  YS02001580           JUNCTION     0.08     1.05     9.59     0  02:00        0.76
  YS02001583           JUNCTION     0.11     1.14     9.64     0  02:00        0.82
  YS02001586           JUNCTION     0.19     1.13     9.30     0  01:59        1.13
  YS02001590           JUNCTION     0.29     1.40     9.26     0  01:59        1.37
  YS02001593           JUNCTION     0.23     1.38     9.24     0  01:59        1.32
  YS02001596           JUNCTION     0.32     1.73     9.15     0  01:59        1.65
  YS02001600           JUNCTION     0.40     1.87     9.00     0  01:59        1.87
  YS02001601           JUNCTION     0.58     2.06     8.90     0  01:59        2.06
  YS02001602           JUNCTION     0.49     1.87     8.77     0  02:00        1.87
  YS02001605           JUNCTION     0.45     1.78     8.68     0  02:00        1.77
  YS02001607           JUNCTION     0.43     1.68     8.53     0  02:00        1.66
  YS02001610           JUNCTION     0.47     1.68     8.48     0  02:00        1.68
  YS02001613           JUNCTION     0.43     1.70     8.54     0  02:01        1.70
  YS02001616           JUNCTION     0.36     1.61     8.52     0  02:00        1.59
  YS02001619           JUNCTION     0.34     1.61     8.54     0  02:00        1.61
  YS02001622           JUNCTION     0.33     1.62     8.52     0  02:00        1.58
  YS02001625           JUNCTION     0.58     1.78     8.38     0  02:00        1.78
  YS02001629           JUNCTION     0.45     1.85     8.40     0  02:00        1.83
  YS02001633           JUNCTION     0.52     2.02     8.47     0  02:02        1.98
  YS02001641           JUNCTION     0.49     1.86     8.30     0  02:04        1.86
  YS02001644           JUNCTION     0.48     1.76     8.19     0  02:02        1.71
  YS02001647           JUNCTION     0.26     1.58     8.19     0  02:02        1.39
  YS02001649           JUNCTION     0.30     1.59     7.98     0  02:04        1.48
  YS02001652           JUNCTION     0.20     1.33     7.93     0  02:04        1.25
  YS02001655           JUNCTION     0.14     1.07     7.92     0  02:05        1.01
  YS02001658           JUNCTION     0.09     0.74     7.89     0  02:05        0.71
  YS02001661           JUNCTION     0.13     0.43     7.84     0  02:06        0.40
  YS02001664           JUNCTION     0.06     0.24     8.16     0  02:02        0.24
  YS02001745           JUNCTION     0.05     0.21     7.73     0  02:02        0.21
  YS02001748           JUNCTION     0.08     0.62     7.70     0  02:05        0.61
  YS02001751           JUNCTION     0.11     0.84     7.72     0  02:04        0.80
  YS02001754           JUNCTION     0.16     1.45     8.06     0  02:04        1.08
  YS02001757           JUNCTION     0.31     1.55     7.81     0  02:04        1.48
  YS02001759           JUNCTION     0.25     1.51     7.88     0  02:04        1.51
  YS02001762           JUNCTION     0.24     1.57     7.97     0  02:05        1.57
  YS02001765           JUNCTION     0.23     1.61     8.06     0  02:03        1.58
  YS02001767           JUNCTION     0.22     1.67     8.15     0  02:03        1.60
  YS02001770           JUNCTION     0.24     1.76     8.26     0  02:03        1.66
  YS02001774           JUNCTION     0.30     1.86     8.28     0  02:03        1.74
  YS02001779           JUNCTION     0.14     1.68     8.37     0  02:03        1.49
  YS02001783           JUNCTION     0.24     1.22     7.37     0  02:04        1.19
  YS02001784           JUNCTION     0.26     1.12     7.18     0  02:04        1.10
  YS02001786           JUNCTION     0.22     0.88     6.91     0  02:04        0.85
  YS02001788           JUNCTION     0.16     0.61     6.59     0  02:06        0.61
  YS02001790           JUNCTION     0.19     0.71     6.36     0  02:06        0.71
  YS02001791           JUNCTION     0.12     0.43     5.90     0  02:05        0.43
  YS02001793           JUNCTION     0.06     0.28     5.12     0  02:07        0.27
  YS02001882           JUNCTION     0.29     1.83     8.55     0  02:01        1.83
  YS02001884           JUNCTION     0.38     1.93     8.55     0  02:01        1.93
  YS02001887           JUNCTION     0.45     2.00     8.54     0  02:04        2.00
  YS02001890           JUNCTION     0.48     1.81     8.32     0  02:01        1.81
  YS02001895           JUNCTION     0.26     1.75     8.50     0  02:04        1.75
  YS02001898           JUNCTION     0.27     1.77     8.51     0  02:04        1.77
  YS02001901           JUNCTION     0.38     1.81     8.42     0  02:04        1.81
  YS02001904           JUNCTION     0.36     1.67     8.30     0  02:01        1.64
  YS02001907           JUNCTION     0.67     1.96     8.25     0  02:04        1.96
  YS02001910           JUNCTION     0.47     2.10     8.61     0  02:02        1.81
  YS02001915           JUNCTION     0.29     2.00     8.72     0  02:02        1.64
  YS02001918           JUNCTION     0.14     1.43     8.50     0  02:05        1.36
  YS02001920           JUNCTION     0.22     1.51     8.52     0  02:05        1.43
  YS02001923           JUNCTION     0.10     1.32     8.58     0  02:05        1.18
  YS02001926           JUNCTION     0.14     1.47     8.92     0  02:05        0.93
  YS02001929           JUNCTION     0.07     0.81     8.51     0  02:05        0.77
  YS02006553           JUNCTION     0.67     1.96     8.24     0  02:04        1.94
  YS02006556           JUNCTION     0.64     1.92     8.23     0  02:04        1.89
  YS02006558           JUNCTION     0.68     1.95     8.21     0  02:04        1.91
  YS02006561           JUNCTION     0.14     0.89     7.55     0  02:04        0.85
  YS02163301           JUNCTION     0.47     1.93     8.44     0  02:02        1.89
  YS02163601           JUNCTION     0.55     2.01     8.41     0  02:04        2.01
  YS02164001           JUNCTION     0.48     1.91     8.37     0  02:04        1.91
  CC-1                 OUTFALL      0.00     0.00     0.00     0  00:00        0.00
  CC-2                 OUTFALL      0.00     0.00     0.00     0  00:00        0.00
  JK-1                 OUTFALL      0.00     0.00     0.00     0  00:00        0.00
  JK-2                 OUTFALL      0.00     0.00     0.00     0  00:00        0.00
  WSC                  OUTFALL      0.22     0.35     1.02     0  02:45        0.35
  CC-storage           STORAGE      0.74     1.41     6.91     0  02:18        1.41
  JK-storage           STORAGE      2.97     4.22     5.02     0  02:06        4.20
  XR-storage           STORAGE      7.84     9.26     7.26     0  08:00        9.26
  
  
  *******************
  Node Inflow Summary
  *******************
  
  -------------------------------------------------------------------------------------------------
                                  Maximum  Maximum                  Lateral       Total        Flow
                                  Lateral    Total  Time of Max      Inflow      Inflow     Balance
                                   Inflow   Inflow   Occurrence      Volume      Volume       Error
  Node                 Type           LPS      LPS  days hr:min    10^6 ltr    10^6 ltr     Percent
  -------------------------------------------------------------------------------------------------
  WS02001211           JUNCTION      7.35   200.38     0  02:48       0.212        5.44       0.611
  WS02001212           JUNCTION      0.00   202.43     0  03:20           0        5.41       0.290
  WS02001213           JUNCTION      0.00   204.56     0  03:20           0        5.39       0.332
  WS02003059           JUNCTION      0.00   209.12     0  03:20           0        5.38       0.594
  WS02003060           JUNCTION     16.53   747.10     0  02:43       0.476        8.37       0.173
  WS02003066           JUNCTION      0.00   535.37     0  02:43           0        2.54       0.057
  WS02003067           JUNCTION      0.00   535.37     0  02:42           0        2.55       0.168
  WS02003069           JUNCTION      0.32   747.30     0  02:43     0.00922        8.35       0.182
  WS02003072           JUNCTION      0.00   747.07     0  02:44           0        8.34       0.248
  WS02003073           JUNCTION      1.82   748.65     0  02:44      0.0524        8.37       0.257
  WS02004138           JUNCTION      0.00   380.00     0  00:00           0        5.25       0.053
  WS02004139           JUNCTION      0.32   191.16     0  00:29     0.00924        5.26       0.509
  WS02004401           JUNCTION      0.00   540.19     0  02:18           0        2.65       0.392
  WS02004402           JUNCTION      0.00   537.05     0  02:40           0        2.64       0.399
  WS02004403           JUNCTION      0.00   536.64     0  02:41           0        2.63       0.390
  WS02004404           JUNCTION      0.16   536.70     0  02:41     0.00467        2.62       0.335
  WS02004405           JUNCTION      0.04   536.58     0  02:41      0.0011        2.61       0.474
  WS02004406           JUNCTION      0.00   536.65     0  02:41           0         2.6       0.809
  WS02004407           JUNCTION      0.00   536.39     0  02:41           0        2.58       0.049
  WS02004409           JUNCTION      0.00   536.28     0  02:41           0        2.58       0.113
  WS02004410           JUNCTION      0.00   535.98     0  02:41           0        2.58       0.179
  WS02004411           JUNCTION      0.00   535.79     0  02:42           0        2.57       0.226
  WS02004412           JUNCTION      0.00   535.63     0  02:42           0        2.57       0.301
  WS02004413           JUNCTION      0.00   535.52     0  02:42           0        2.56       0.532
  WS02006109           JUNCTION      1.23   556.66     0  02:23      0.0354        2.69       0.299
  WS02006110           JUNCTION      0.00   557.83     0  02:23           0        2.69       0.251
  WS02006111           JUNCTION      0.00   560.98     0  02:36           0        2.68       0.037
  WS02006112           JUNCTION      0.00   542.76     0  02:09           0        2.68       0.648
  WS02006113           JUNCTION      0.00   573.90     0  02:17           0        2.68       0.061
  WS02006115           JUNCTION      0.00   551.25     0  02:18           0        2.66       0.251
  WS02006116           JUNCTION      0.00   538.30     0  02:33           0        2.65       0.128
  WS02006228           JUNCTION      0.00   555.37     0  02:17           0        2.66       0.127
  WS02006229           JUNCTION      0.00   556.24     0  02:17           0        2.67       0.183
  WS02006230           JUNCTION     10.28   587.55     0  02:10       0.296        2.67       0.208
  WS02006231           JUNCTION      0.00   581.07     0  02:16           0        2.37      -0.134
  WS02006232           JUNCTION      0.00   580.27     0  02:16           0        2.38       0.455
  WS02006234           JUNCTION      0.00   575.38     0  02:16           0        2.37      -0.399
  WS02006235           JUNCTION      0.00   568.19     0  02:16           0        2.46       0.348
  WS02006238           JUNCTION      0.00   425.52     0  02:20           0        1.81      -0.220
  WS02006239           JUNCTION      0.00   423.44     0  02:15           0        1.77      -0.139
  WS02006240           JUNCTION      0.00   420.21     0  02:15           0        1.73      -0.095
  WS02006242           JUNCTION      0.00   419.79     0  02:15           0         1.7      -0.181
  WS02006243           JUNCTION      0.00   419.11     0  02:20           0        1.69      -0.175
  WS02006245           JUNCTION      0.00   419.71     0  02:20           0        1.69       0.595
  WS02006247           JUNCTION      0.00   419.61     0  02:20           0        1.69      -0.041
  WS02006248           JUNCTION      0.00   420.32     0  02:15           0        1.69      -0.222
  WS02006249           JUNCTION      0.00   472.73     0  03:10           0        1.82       0.877
  WS02006251           JUNCTION      0.08   407.75     0  03:30     0.00222        1.82       0.053
  WS02006252           JUNCTION      0.00   400.00     0  00:00           0        1.81      -0.587
  WS02006256           JUNCTION      0.00   300.00     0  00:00           0       0.947      -0.983
  WSF200               JUNCTION      0.00   535.37     0  02:43           0        2.54       0.026
  YS02001580           JUNCTION      0.00   159.86     0  02:00           0     0.00476       2.127
  YS02001583           JUNCTION      0.00   262.72     0  02:00           0      0.0151      -9.536
  YS02001586           JUNCTION    329.68   330.06     0  02:04       0.768        0.78       0.216
  YS02001590           JUNCTION      0.00   317.77     0  02:06           0       0.762      -0.037
  YS02001593           JUNCTION      0.00   317.91     0  02:04           0       0.762       0.011
  YS02001596           JUNCTION      0.00   317.83     0  02:03           0       0.762      -0.008
  YS02001600           JUNCTION      0.00   317.95     0  02:06           0       0.762       0.012
  YS02001601           JUNCTION    604.03   920.99     0  02:03        1.06        1.83       0.025
  YS02001602           JUNCTION      0.00   567.08     0  02:00           0        1.51       0.017
  YS02001605           JUNCTION      0.00   567.04     0  02:00           0        1.47       0.011
  YS02001607           JUNCTION      0.00   566.98     0  02:00           0        1.47       0.117
  YS02001610           JUNCTION      0.00   552.65     0  02:00           0        1.47       0.146
  YS02001613           JUNCTION      0.00   560.96     0  02:00           0        1.44       0.105
  YS02001616           JUNCTION      0.00   580.90     0  02:00           0        1.44       0.021
  YS02001619           JUNCTION    568.09   998.39     0  02:00        1.18        2.61      -0.013
  YS02001622           JUNCTION      0.00  1013.58     0  02:00           0        2.61      -0.001
  YS02001625           JUNCTION      0.00   956.20     0  02:00           0        2.61       0.336
  YS02001629           JUNCTION      0.00   956.01     0  02:00           0        2.57       0.023
  YS02001633           JUNCTION    461.55  1380.22     0  02:02       0.795        3.36       0.096
  YS02001641           JUNCTION      0.00  1380.44     0  02:02           0        3.37       0.077
  YS02001644           JUNCTION    396.82  1775.74     0  02:02        0.65        4.01       0.079
  YS02001647           JUNCTION      0.00  1776.01     0  02:02           0           4       0.014
  YS02001649           JUNCTION      0.00  2131.34     0  02:02           0        4.61       0.004
  YS02001652           JUNCTION      0.00   439.11     0  02:02           0       0.611      -0.202
  YS02001655           JUNCTION      0.15   423.63     0  02:06     0.00443       0.612       0.111
  YS02001658           JUNCTION      0.00   445.88     0  02:06           0       0.608      -0.006
  YS02001661           JUNCTION      0.00   398.14     0  02:02           0       0.608       0.046
  YS02001664           JUNCTION    398.59   398.59     0  02:02       0.608       0.608      -0.013
  YS02001745           JUNCTION    253.66   253.66     0  02:02       0.357       0.357       0.284
  YS02001748           JUNCTION      0.04   253.28     0  02:02      0.0013       0.357      -0.396
  YS02001751           JUNCTION      0.01   363.16     0  02:04    0.000317       0.362       0.284
  YS02001754           JUNCTION      0.26   386.51     0  02:04     0.00749       0.371      -0.494
  YS02001757           JUNCTION      0.00  2723.41     0  02:05           0        6.29       0.047
  YS02001759           JUNCTION    365.98   928.83     0  02:03       0.519        1.31       0.006
  YS02001762           JUNCTION      0.00   579.51     0  02:03           0       0.788       0.009
  YS02001765           JUNCTION      0.00   569.76     0  02:03           0       0.788       0.025
  YS02001767           JUNCTION      0.54   573.68     0  02:03      0.0154       0.788       0.011
  YS02001770           JUNCTION    500.59   571.33     0  02:03       0.773       0.816      -0.027
  YS02001774           JUNCTION      0.00   253.35     0  02:03           0       0.064       1.898
  YS02001779           JUNCTION      0.01   258.70     0  02:03    0.000144      0.0201      -2.225
  YS02001783           JUNCTION      0.00  1138.95     0  02:05           0        2.34       0.008
  YS02001784           JUNCTION      1.06  1140.08     0  02:06      0.0305        2.37       0.021
  YS02001786           JUNCTION      0.06  1140.33     0  02:05     0.00162        2.37       0.028
  YS02001788           JUNCTION      0.07  1141.91     0  02:05     0.00204        2.37       0.013
  YS02001790           JUNCTION      0.15  1154.05     0  02:07     0.00446        2.38       0.023
  YS02001791           JUNCTION      0.00  1258.79     0  02:06           0        2.37      -0.010
  YS02001793           JUNCTION      0.00  1220.40     0  02:05           0        2.38       0.008
  YS02001882           JUNCTION      0.00    59.28     0  02:01           0      0.0125       3.902
  YS02001884           JUNCTION      0.00   110.43     0  02:01           0      0.0484       5.245
  YS02001887           JUNCTION    398.21   426.31     0  02:01       0.548       0.582       0.737
  YS02001890           JUNCTION      0.00   428.40     0  02:01           0       0.541       0.922
  YS02001895           JUNCTION      0.00   428.44     0  02:01           0       0.536       0.249
  YS02001898           JUNCTION      0.00   421.86     0  02:02           0       0.535       0.058
  YS02001901           JUNCTION      0.00   441.85     0  02:02           0       0.537       0.590
  YS02001904           JUNCTION      0.00   443.71     0  02:02           0       0.542       0.505
  YS02001907           JUNCTION      0.00  1008.26     0  02:06           0        1.66       1.071
  YS02001910           JUNCTION      0.00   720.77     0  02:06           0        1.13       0.640
  YS02001915           JUNCTION    406.69   720.72     0  02:06       0.667        1.15       0.123
  YS02001918           JUNCTION      0.00   387.30     0  02:02           0         0.5       0.032
  YS02001920           JUNCTION      2.87   361.79     0  02:06      0.0827       0.483       0.185
  YS02001923           JUNCTION      0.04   353.70     0  02:02     0.00109       0.393      -0.187
  YS02001926           JUNCTION      0.05   380.04     0  02:04      0.0015       0.383      -0.027
  YS02001929           JUNCTION    205.22   205.22     0  02:03       0.375       0.375      -0.017
  YS02006553           JUNCTION      0.00   780.61     0  02:08           0        1.63       0.721
  YS02006556           JUNCTION      0.00   781.34     0  02:08           0        1.63       0.488
  YS02006558           JUNCTION    499.18  1140.39     0  02:05       0.757        2.37       0.144
  YS02006561           JUNCTION      0.00  1139.85     0  02:04           0        2.34      -0.001
  YS02163301           JUNCTION      0.00   924.24     0  02:02           0        2.57       0.053
  YS02163601           JUNCTION      0.11  1380.45     0  02:02     0.00317        3.36       0.139
  YS02164001           JUNCTION      0.00  1380.32     0  02:02           0        3.36       0.063
  CC-1                 OUTFALL       0.00   683.00     0  00:00           0        2.78       0.000
  CC-2                 OUTFALL       0.00   683.00     0  00:00           0        2.47       0.000
  JK-1                 OUTFALL       0.00  1000.00     0  00:00           0        1.34       0.000
  JK-2                 OUTFALL       0.00  1000.00     0  00:00           0      0.0484       0.000
  WSC                  OUTFALL       0.00   748.33     0  02:45           0        8.35       0.000
  CC-storage           STORAGE       0.00  2727.19     0  02:05           0        8.51      -0.304
  JK-storage           STORAGE       0.00  1196.27     0  02:07           0        2.53       0.258
  XR-storage           STORAGE     200.00   200.00     0  00:00        5.76        6.36       0.001
  
  
  **********************
  Node Surcharge Summary
  **********************
  
  Surcharging occurs when water rises above the top of the highest conduit.
  ---------------------------------------------------------------------
                                               Max. Height   Min. Depth
                                   Hours       Above Crown    Below Rim
  Node                 Type      Surcharged         Meters       Meters
  ---------------------------------------------------------------------
  WS02006109           JUNCTION        1.06          0.326        1.494
  WS02006110           JUNCTION        0.38          0.283        1.567
  WS02006112           JUNCTION        0.36          0.090        1.590
  WS02006228           JUNCTION        1.05          0.306        1.894
  WS02006229           JUNCTION        1.06          0.365        2.085
  WS02006230           JUNCTION        0.38          0.242        1.328
  WS02006231           JUNCTION        0.48          1.153        0.377
  WS02006232           JUNCTION        1.07          0.606        0.874
  WS02006234           JUNCTION        0.71          0.746        0.494
  WS02006235           JUNCTION        1.05          0.919        0.371
  WS02006238           JUNCTION        1.06          0.959        0.471
  WS02006239           JUNCTION        1.02          0.868        0.422
  WS02006240           JUNCTION        1.02          0.843        0.547
  WS02006242           JUNCTION        1.03          0.820        0.000
  WS02006243           JUNCTION        1.01          0.684        0.086
  WS02006245           JUNCTION        1.00          0.589        0.261
  WS02006247           JUNCTION        1.00          0.538        0.222
  WS02006248           JUNCTION        0.99          0.380        0.000
  WS02006249           JUNCTION        0.99          0.390        0.000
  WS02006251           JUNCTION        0.50          0.329        0.851
  WS02006252           JUNCTION        1.20          1.100        0.000
  WS02006256           JUNCTION        3.89          2.050        0.000
  YS02001580           JUNCTION        0.21          0.450        0.000
  YS02001583           JUNCTION        0.21          0.500        0.000
  YS02001586           JUNCTION        0.34          0.510        0.000
  YS02001590           JUNCTION        0.39          0.750        0.000
  YS02001593           JUNCTION        0.40          0.762        0.078
  YS02001596           JUNCTION        0.48          0.998        0.072
  YS02001600           JUNCTION        0.58          1.190        0.000
  YS02001601           JUNCTION        0.87          1.440        0.000
  YS02001602           JUNCTION        0.77          1.270        0.000
  YS02001605           JUNCTION        0.72          1.180        0.000
  YS02001607           JUNCTION        0.36          0.680        0.000
  YS02001610           JUNCTION        0.38          0.680        0.000
  YS02001613           JUNCTION        0.35          0.700        0.000
  YS02001616           JUNCTION        0.32          0.610        0.000
  YS02001619           JUNCTION        0.31          0.610        0.000
  YS02001622           JUNCTION        0.31          0.620        0.000
  YS02001625           JUNCTION        0.44          0.780        0.000
  YS02001629           JUNCTION        0.27          0.470        0.000
  YS02001633           JUNCTION        0.46          0.999        0.061
  YS02001641           JUNCTION        0.40          0.858        0.242
  YS02001644           JUNCTION        0.37          0.760        0.160
  YS02001647           JUNCTION        0.20          0.581        0.319
  YS02001649           JUNCTION        0.29          0.587        0.463
  YS02001652           JUNCTION        0.14          0.300        0.830
  YS02001655           JUNCTION        0.01          0.069        1.131
  YS02001754           JUNCTION        0.03          0.401        0.749
  YS02001757           JUNCTION        0.32          0.548        0.662
  YS02001759           JUNCTION        0.24          0.513        0.697
  YS02001762           JUNCTION        0.22          0.570        0.580
  YS02001765           JUNCTION        0.18          0.609        0.491
  YS02001767           JUNCTION        0.16          0.665        0.365
  YS02001770           JUNCTION        0.14          0.734        0.186
  YS02001774           JUNCTION        0.21          0.857        0.193
  YS02001779           JUNCTION        0.03          0.680        0.000
  YS02001783           JUNCTION        0.23          0.424        1.176
  YS02001784           JUNCTION        0.21          0.316        1.174
  YS02001786           JUNCTION        0.11          0.076        1.354
  YS02001882           JUNCTION        0.19          0.830        0.000
  YS02001884           JUNCTION        0.20          0.870        0.000
  YS02001887           JUNCTION        0.23          0.950        0.000
  YS02001890           JUNCTION        0.24          0.760        0.000
  YS02001895           JUNCTION        0.18          0.748        0.002
  YS02001898           JUNCTION        0.17          0.740        0.000
  YS02001901           JUNCTION        0.21          0.809        0.061
  YS02001904           JUNCTION        0.20          0.673        0.177
  YS02001907           JUNCTION        0.38          0.950        0.000
  YS02001910           JUNCTION        0.26          1.100        0.000
  YS02001915           JUNCTION        0.18          1.000        0.000
  YS02001918           JUNCTION        0.10          0.433        0.377
  YS02001920           JUNCTION        0.11          0.513        0.627
  YS02001923           JUNCTION        0.01          0.105        0.715
  YS02001926           JUNCTION        0.01          0.475        0.425
  YS02006553           JUNCTION        0.39          0.961        0.229
  YS02006556           JUNCTION        0.32          0.876        0.474
  YS02006558           JUNCTION        0.31          0.848        0.552
  YS02006561           JUNCTION        0.06          0.088        1.062
  YS02163301           JUNCTION        0.44          0.926        0.104
  YS02163601           JUNCTION        0.48          1.011        0.069
  YS02164001           JUNCTION        0.41          0.911        0.189
  
  
  *********************
  Node Flooding Summary
  *********************
  
  Flooding refers to all water that overflows a node, whether it ponds or not.
  --------------------------------------------------------------------------
                                                             Total   Maximum
                                 Maximum   Time of Max       Flood    Ponded
                        Hours       Rate    Occurrence      Volume     Depth
  Node                 Flooded       LPS   days hr:min    10^6 ltr    Meters
  --------------------------------------------------------------------------
  WS02006242              0.01      2.55      0  02:22       0.000     0.000
  WS02006248              0.01     23.69      0  02:10       0.000     0.000
  WS02006249              0.48     86.67      0  02:07       0.116     0.000
  WS02006252              0.01    290.05      0  03:10       0.000     0.000
  WS02006256              0.87    293.19      0  00:00       0.266     0.000
  YS02001580              0.01    103.07      0  02:00       0.001     0.000
  YS02001583              0.01    230.21      0  02:00       0.000     0.000
  YS02001586              0.10    117.46      0  02:00       0.005     0.000
  YS02001590              0.01     89.90      0  01:59       0.000     0.000
  YS02001600              0.01      4.20      0  01:59       0.000     0.000
  YS02001601              0.28    523.02      0  02:03       0.318     0.000
  YS02001602              0.20     61.97      0  02:07       0.033     0.000
  YS02001605              0.01      4.29      0  02:00       0.000     0.000
  YS02001607              0.01      7.27      0  02:00       0.000     0.000
  YS02001610              0.13     99.69      0  02:05       0.033     0.000
  YS02001613              0.01      0.36      0  02:01       0.000     0.000
  YS02001616              0.01     66.25      0  02:00       0.000     0.000
  YS02001619              0.01    139.36      0  02:00       0.000     0.000
  YS02001622              0.01    288.70      0  02:00       0.001     0.000
  YS02001625              0.11    154.08      0  02:06       0.030     0.000
  YS02001629              0.01    335.62      0  02:00       0.002     0.000
  YS02001779              0.01    159.82      0  02:03       0.000     0.000
  YS02001882              0.01     36.00      0  02:01       0.000     0.000
  YS02001884              0.01     19.13      0  02:01       0.000     0.000
  YS02001887              0.01      4.54      0  02:04       0.000     0.000
  YS02001890              0.01     51.97      0  02:04       0.000     0.000
  YS02001898              0.01      4.04      0  02:04       0.000     0.000
  YS02001907              0.05    274.42      0  02:06       0.025     0.000
  YS02001910              0.01     39.07      0  02:02       0.000     0.000
  YS02001915              0.01    152.17      0  02:02       0.000     0.000
  
  
  **********************
  Storage Volume Summary
  **********************
  
  ------------------------------------------------------------------------------------------------
                         Average    Avg   Evap  Exfil     Maximum    Max    Time of Max    Maximum
                          Volume   Pcnt   Pcnt   Pcnt      Volume   Pcnt     Occurrence    Outflow
  Storage Unit           1000 m³   Full   Loss   Loss     1000 m³   Full    days hr:min        LPS
  ------------------------------------------------------------------------------------------------
  CC-storage               2.054   32.0    0.0    0.0       3.924   61.2       0  02:18    1783.53
  JK-storage               0.149   51.2    0.0    0.0       0.212   72.8       0  02:06    2300.00
  XR-storage               0.941   65.3    0.0    0.0       1.111   77.2       0  08:00     380.00
  
  
  ***********************
  Outfall Loading Summary
  ***********************
  
  -----------------------------------------------------------
                         Flow       Avg       Max       Total
                         Freq      Flow      Flow      Volume
  Outfall Node           Pcnt       LPS       LPS    10^6 ltr
  -----------------------------------------------------------
  CC-1                  26.60    683.00    683.00       2.784
  CC-2                  22.58    683.00    683.00       2.466
  JK-1                  12.09   1000.00   1000.00       1.338
  JK-2                   0.27   1000.00   1000.00       0.048
  WSC                   99.92    336.97    748.33       8.347
  -----------------------------------------------------------
  System                32.29   3702.97   3366.23      14.982
  
  
  ********************
  Link Flow Summary
  ********************
  
  -----------------------------------------------------------------------------
                                 Maximum  Time of Max   Maximum    Max/    Max/
                                  |Flow|   Occurrence   |Veloc|    Full    Full
  Link                 Type          LPS  days hr:min     m/sec    Flow   Depth
  -----------------------------------------------------------------------------
  1                    CONDUIT    748.33     0  02:45      3.07    0.26    0.35
  WS02001211WS02001212 CONDUIT    202.43     0  03:20      0.54    0.15    0.51
  WS02001212WS02001213 CONDUIT    204.56     0  03:20      1.04    0.32    0.36
  WS02001213WS02003059 CONDUIT    209.12     0  03:20      0.47    0.35    0.67
  WS02003059WS02003060 CONDUIT    215.62     0  03:18      0.67    0.14    0.58
  WS02003060WS02003069 CONDUIT    746.98     0  02:43      1.76    0.29    0.40
  WS02003066WSF200     CONDUIT    535.37     0  02:43      2.73    0.09    0.23
  WS02003067WS02003066 CONDUIT    535.37     0  02:43      1.20    0.17    0.42
  WS02003069WS02003072 CONDUIT    747.07     0  02:44      1.51    0.36    0.45
  WS02003072WS02003073 CONDUIT    746.83     0  02:44      1.59    1.61    0.43
  WS02004138WS02004139 CONDUIT    190.84     0  00:29      2.17    0.04    0.33
  WS02004139WS02001211 CONDUIT    193.03     0  02:48      0.54    0.24    0.47
  WS02004401WS02004402 CONDUIT    537.05     0  02:40      0.97    0.64    0.86
  WS02004402WS02004403 CONDUIT    536.64     0  02:41      0.97    0.77    0.88
  WS02004403WS02004404 CONDUIT    536.54     0  02:41      0.92    0.39    0.93
  WS02004404WS02004405 CONDUIT    536.54     0  02:41      1.08    5.26    0.96
  WS02004405WS02004406 CONDUIT    536.65     0  02:41      0.99    1.06    0.96
  WS02004406WS02004407 CONDUIT    536.39     0  02:41      1.04    0.24    0.63
  WS02004407WS02004409 CONDUIT    536.28     0  02:41      1.56    0.19    0.48
  WS02004409WS02004410 CONDUIT    535.98     0  02:41      1.05    0.69    0.67
  WS02004410WS02004411 CONDUIT    535.79     0  02:42      1.00    0.73    0.69
  WS02004411WS02004412 CONDUIT    535.63     0  02:42      0.92    0.76    0.69
  WS02004412WS02004413 CONDUIT    535.52     0  02:42      0.82    0.36    0.78
  WS02004413WS02003067 CONDUIT    535.37     0  02:42      1.11    0.23    0.59
  WS02006109WS02006110 CONDUIT    557.83     0  02:23      1.11    1.07    1.00
  WS02006110WS02006113 CONDUIT    573.90     0  02:17      1.38    0.52    0.78
  WS02006111WS02006112 CONDUIT    542.76     0  02:09      1.82    0.26    0.67
  WS02006112WS02006115 CONDUIT    551.25     0  02:18      0.88    0.33    0.87
  WS02006113WS02006111 CONDUIT    560.98     0  02:36      2.47    0.67    0.46
  WS02006115WS02006116 CONDUIT    538.30     0  02:33      1.11    0.69    0.76
  WS02006116WS02004401 CONDUIT    540.19     0  02:18      0.98    0.74    0.84
  WS02006228WS02006109 CONDUIT    555.43     0  02:23      1.10    2.43    1.00
  WS02006229WS02006228 CONDUIT    555.37     0  02:17      1.15    1.84    1.00
  WS02006230WS02006229 CONDUIT    556.24     0  02:17      1.45   12.38    1.00
  WS02006231WS02006230 CONDUIT    577.27     0  02:10      1.57    8.76    1.00
  WS02006232WS02006231 CONDUIT    581.07     0  02:16      1.52    1.22    1.00
  WS02006234WS02006232 CONDUIT    580.27     0  02:16      1.51    1.17    1.00
  WS02006235WS02006234 CONDUIT    575.38     0  02:16      1.50    6.07    1.00
  WS02006238WS02006235 CONDUIT    426.56     0  02:20      1.57    0.95    1.00
  WS02006239WS02006238 CONDUIT    425.52     0  02:20      1.11    1.36    1.00
  WS02006240WS02006239 CONDUIT    423.44     0  02:15      1.24    1.33    1.00
  WS02006242WS02006240 CONDUIT    420.21     0  02:15      1.12    1.67    1.00
  WS02006243WS02006242 CONDUIT    419.79     0  02:15      1.39    0.90    1.00
  WS02006245WS02006243 CONDUIT    419.11     0  02:20      1.45    1.24    1.00
  WS02006247WS02006245 CONDUIT    419.71     0  02:20      1.44    3.33    1.00
  WS02006248WS02006247 CONDUIT    419.61     0  02:20      1.45    0.91    1.00
  WS02006249WS02006248 CONDUIT    420.32     0  02:15      1.37    2.30    1.00
  WS02006251WS02006249 CONDUIT    472.73     0  03:10      1.99    1.36    1.00
  WS02006252WS02006251 CONDUIT    407.68     0  03:30     26.39    1.50    1.00
  WS02006256WS02006235 CONDUIT    289.22     0  01:58      4.23    3.06    1.00
  WSF200WS02003060     CONDUIT    535.32     0  02:43      1.76    0.12    0.32
  YS02001580YS02001583 CONDUIT    159.86     0  02:00      0.88    0.62    1.00
  YS02001583YS02001586 CONDUIT    193.97     0  02:00      0.88    0.29    1.00
  YS02001586YS02001590 CONDUIT    317.77     0  02:06      1.29    0.56    1.00
  YS02001590YS02001593 CONDUIT    317.91     0  02:04      1.12    2.00    1.00
  YS02001593YS02001596 CONDUIT    317.83     0  02:03      1.71    0.50    1.00
  YS02001596YS02001600 CONDUIT    317.95     0  02:06      1.20    0.62    1.00
  YS02001600YS02001601 CONDUIT    317.71     0  02:03      1.12    0.55    1.00
  YS02001601YS02001602 CONDUIT    567.08     0  02:00      2.01    2.05    1.00
  YS02001602YS02001605 CONDUIT    567.04     0  02:00      2.01   12.00    1.00
  YS02001605YS02001607 CONDUIT    566.98     0  02:00      2.01    3.11    1.00
  YS02001607YS02001610 CONDUIT    552.65     0  02:00      0.70    0.53    1.00
  YS02001610YS02001613 CONDUIT    560.96     0  02:00      0.71    0.65    1.00
  YS02001613YS02001616 CONDUIT    580.90     0  02:00      0.74    0.50    1.00
  YS02001616YS02001619 CONDUIT    531.58     0  02:00      0.68    0.92    1.00
  YS02001619YS02001622 CONDUIT   1013.58     0  02:00      1.29    1.49    1.00
  YS02001622YS02001625 CONDUIT    956.20     0  02:00      1.22    0.51    1.00
  YS02001625YS02001629 CONDUIT    956.01     0  02:00      1.22    0.45    1.00
  YS02001629YS02163301 CONDUIT    924.24     0  02:02      1.18    1.14    1.00
  YS02001633YS02163601 CONDUIT   1380.34     0  02:02      1.76    1.45    1.00
  YS02001641YS02001644 CONDUIT   1380.75     0  02:02      1.76    4.46    1.00
  YS02001644YS02001647 CONDUIT   1776.01     0  02:02      2.32    1.04    1.00
  YS02001647YS02001649 CONDUIT   1777.99     0  02:02      2.37    0.94    1.00
  YS02001649YS02001757 CONDUIT   2137.68     0  02:02      2.72    1.30    1.00
  YS02001652YS02001649 CONDUIT    436.84     0  02:02      0.76    0.22    1.00
  YS02001655YS02001652 CONDUIT    439.11     0  02:02      1.43    0.21    1.00
  YS02001658YS02001655 CONDUIT    423.47     0  02:06      2.03    0.18    0.87
  YS02001661YS02001658 CONDUIT    445.88     0  02:06      2.30    0.17    0.52
  YS02001664YS02001661 CONDUIT    398.14     0  02:02      2.12    0.12    0.32
  YS02001745YS02001748 CONDUIT    253.24     0  02:02      2.10    0.10    0.37
  YS02001748YS02001751 CONDUIT    303.11     0  02:04      1.77    0.15    0.72
  YS02001751YS02001754 CONDUIT    386.25     0  02:04      1.52    0.19    0.91
  YS02001754YS02001757 CONDUIT    250.73     0  02:06      0.53    0.10    1.00
  YS02001757CaochengTiaoxuchi CONDUIT   2727.19     0  02:05      3.47    1.18    1.00
  YS02001759YS02001757 CONDUIT    934.75     0  02:03      1.19    0.66    1.00
  YS02001762YS02001759 CONDUIT    589.06     0  02:03      0.75    0.68    1.00
  YS02001765YS02001762 CONDUIT    579.51     0  02:03      0.74    0.54    1.00
  YS02001767YS02001765 CONDUIT    569.76     0  02:03      0.83    0.72    1.00
  YS02001770YS02001767 CONDUIT    573.14     0  02:03      0.86    2.27    1.00
  YS02001774YS02001770 CONDUIT    253.35     0  02:03      0.32    0.16    1.00
  YS02001779YS02001774 CONDUIT    258.69     0  02:03      0.34    0.13    1.00
  YS02001783YS02001784 CONDUIT   1139.02     0  02:06      2.27    1.57    1.00
  YS02001784YS02001785 CONDUIT   1140.28     0  02:05      2.27    2.65    1.00
  YS02001786YS02001788 CONDUIT   1141.84     0  02:05      2.44    2.20    0.88
  YS02001788YS02001790 CONDUIT   1153.89     0  02:07      2.69    0.85    0.83
  YS02001790YS02001791 CONDUIT   1258.79     0  02:06      3.41    1.37    0.69
  YS02001791YS02001793 CONDUIT   1220.40     0  02:05      6.70    0.52    0.43
  YS02001793JiankangQianchi CONDUIT   1196.27     0  02:07      2.40    0.10    0.64
  YS02001882YS02001884 CONDUIT     59.28     0  02:01      0.09    0.07    1.00
  YS02001884YS02001887 CONDUIT    110.43     0  02:01      0.14    0.15    1.00
  YS02001887YS02001890 CONDUIT    428.40     0  02:01      0.55    0.73    1.00
  YS02001890YS02001895 CONDUIT    428.44     0  02:01      0.55    0.20    1.00
  YS02001895YS02001898 CONDUIT    421.86     0  02:02      0.54    0.73    1.00
  YS02001898YS02001901 CONDUIT    441.85     0  02:02      0.56    0.29    1.00
  YS02001901YS02001904 CONDUIT    443.71     0  02:02      0.56    0.69    1.00
  YS02001904YS02001907 CONDUIT    446.61     0  02:02      0.57    0.16    1.00
  YS02001907YS02006553 CONDUIT    780.61     0  02:08      0.87    0.92    1.00
  YS02001910YS02001907 CONDUIT    721.41     0  02:06      0.92    0.41    1.00
  YS02001915YS02001910 CONDUIT    720.77     0  02:06      0.92    0.36    1.00
  YS02001918YS02001915 CONDUIT    362.05     0  02:06      0.48    0.20    1.00
  YS02001920YS02001918 CONDUIT    361.69     0  02:06      0.65    0.35    1.00
  YS02001923YS02001920 CONDUIT    358.92     0  02:06      0.76    0.16    1.00
  YS02001926YS02001923 CONDUIT    346.16     0  02:05      0.98    0.49    1.00
  YS02001929YS02001926 CONDUIT    344.77     0  02:05      1.11    0.16    0.91
  YS02006553YS02006556 CONDUIT    781.34     0  02:08      0.99    0.67    1.00
  YS02006556YS02006558 CONDUIT    782.37     0  02:08      1.00    0.62    1.00
  YS02006558YS02006561 CONDUIT   1139.85     0  02:04      4.03    2.52    1.00
  YS02006561YS02001783 CONDUIT   1138.95     0  02:05      2.28    0.59    1.00
  YS02163301YS02001633 CONDUIT    924.10     0  02:02      1.18    0.87    1.00
  YS02163601YS02164001 CONDUIT   1380.32     0  02:02      1.76    1.22    1.00
  YS02164001YS02001641 CONDUIT   1380.44     0  02:02      1.76    1.88    1.00
  CC-R1                PUMP       683.00     0  00:00              1.00
  CC-R2                PUMP       683.00     0  00:00              1.00
  CC-S1                PUMP       200.00     0  00:00              1.00
  CC-S2                PUMP       200.00     0  00:00              1.00
  JK-R1                PUMP      1000.00     0  00:00              1.00
  JK-R2                PUMP      1000.00     0  00:00              1.00
  JK-S                 PUMP       300.00     0  00:00              1.00
  XR-1                 PUMP        95.00     0  00:00              1.00
  XR-2                 PUMP        95.00     0  00:00              1.00
  XR-3                 PUMP        95.00     0  00:00              1.00
  XR-4                 PUMP        95.00     0  00:00              1.00
  
  
  ***************************
  Flow Classification Summary
  ***************************
  
  -------------------------------------------------------------------------------------
                      Adjusted    ---------- Fraction of Time in Flow Class ---------- 
                       /Actual         Up    Down  Sub   Sup   Up    Down  Norm  Inlet 
  Conduit               Length    Dry  Dry   Dry   Crit  Crit  Crit  Crit  Ltd   Ctrl  
  -------------------------------------------------------------------------------------
  1                       1.00   0.00  0.00  0.00  0.00  1.00  0.00  0.00  0.19  0.00
  WS02001211WS02001212    1.00   0.00  0.02  0.00  0.98  0.00  0.00  0.00  0.00  0.00
  WS02001212WS02001213    1.00   0.02  0.00  0.00  0.15  0.00  0.83  0.00  0.00  0.00
  WS02001213WS02003059    1.00   0.00  0.01  0.00  0.99  0.00  0.00  0.00  0.00  0.00
  WS02003059WS02003060    1.00   0.00  0.00  0.00  1.00  0.00  0.00  0.00  0.03  0.00
  WS02003060WS02003069    1.00   0.00  0.00  0.00  0.98  0.02  0.00  0.00  0.73  0.00
  WS02003066WSF200        1.00   0.13  0.00  0.00  0.00  0.87  0.00  0.00  0.81  0.00
  WS02003067WS02003066    1.00   0.10  0.02  0.00  0.88  0.00  0.00  0.00  0.00  0.00
  WS02003069WS02003072    1.00   0.00  0.00  0.00  1.00  0.00  0.00  0.00  0.83  0.00
  WS02003072WS02003073    1.00   0.00  0.00  0.00  0.00  0.00  0.00  1.00  0.00  0.00
  WS02004138WS02004139    1.00   0.00  0.00  0.00  0.97  0.01  0.00  0.02  0.98  0.00
  WS02004139WS02001211    1.00   0.00  0.00  0.00  0.99  0.00  0.00  0.00  0.00  0.00
  WS02004401WS02004402    1.00   0.02  0.00  0.00  0.98  0.00  0.00  0.00  0.00  0.00
  WS02004402WS02004403    1.00   0.02  0.00  0.00  0.97  0.00  0.00  0.00  0.00  0.00
  WS02004403WS02004404    1.00   0.00  0.03  0.00  0.97  0.00  0.00  0.00  0.00  0.00
  WS02004404WS02004405    1.00   0.00  0.00  0.00  1.00  0.00  0.00  0.00  0.01  0.00
  WS02004405WS02004406    1.00   0.00  0.00  0.00  1.00  0.00  0.00  0.00  0.00  0.00
  WS02004406WS02004407    1.00   0.00  0.05  0.00  0.95  0.00  0.00  0.00  0.00  0.00
  WS02004407WS02004409    1.00   0.05  0.00  0.00  0.94  0.01  0.00  0.00  0.94  0.00
  WS02004409WS02004410    1.00   0.05  0.00  0.00  0.95  0.00  0.00  0.00  0.03  0.00
  WS02004410WS02004411    1.00   0.05  0.00  0.00  0.95  0.00  0.00  0.00  0.01  0.00
  WS02004411WS02004412    1.00   0.05  0.00  0.00  0.95  0.00  0.00  0.00  0.00  0.00
  WS02004412WS02004413    1.00   0.05  0.00  0.00  0.94  0.00  0.00  0.00  0.01  0.00
  WS02004413WS02003067    1.00   0.06  0.04  0.00  0.00  0.00  0.90  0.00  0.00  0.00
  WS02006109WS02006110    1.00   0.00  0.01  0.00  0.98  0.00  0.01  0.00  0.00  0.00
  WS02006110WS02006113    1.00   0.01  0.01  0.00  0.98  0.00  0.00  0.00  0.00  0.00
  WS02006111WS02006112    1.00   0.02  0.00  0.00  0.98  0.00  0.00  0.00  0.98  0.00
  WS02006112WS02006115    1.00   0.02  0.00  0.00  0.97  0.00  0.00  0.00  0.00  0.00
  WS02006113WS02006111    1.00   0.02  0.00  0.00  0.00  0.98  0.00  0.00  0.08  0.00
  WS02006115WS02006116    1.00   0.02  0.00  0.00  0.97  0.00  0.00  0.01  0.00  0.00
  WS02006116WS02004401    1.00   0.02  0.00  0.00  0.98  0.00  0.00  0.00  0.00  0.00
  WS02006228WS02006109    1.00   0.00  0.00  0.00  1.00  0.00  0.00  0.00  0.00  0.00
  WS02006229WS02006228    1.00   0.00  0.00  0.00  0.99  0.00  0.00  0.01  0.00  0.00
  WS02006230WS02006229    1.00   0.00  0.00  0.00  0.99  0.00  0.00  0.01  0.01  0.00
  WS02006231WS02006230    1.00   0.00  0.00  0.00  0.14  0.00  0.86  0.00  0.00  0.00
  WS02006232WS02006231    1.00   0.00  0.00  0.00  0.99  0.00  0.01  0.00  0.00  0.00
  WS02006234WS02006232    1.00   0.00  0.00  0.00  1.00  0.00  0.00  0.00  0.39  0.00
  WS02006235WS02006234    1.00   0.00  0.00  0.00  0.57  0.00  0.43  0.00  0.00  0.00
  WS02006238WS02006235    1.00   0.00  0.00  0.00  1.00  0.00  0.00  0.00  0.00  0.00
  WS02006239WS02006238    1.00   0.00  0.00  0.00  1.00  0.00  0.00  0.00  0.51  0.00
  WS02006240WS02006239    1.00   0.00  0.00  0.00  0.38  0.00  0.00  0.62  0.02  0.00
  WS02006242WS02006240    1.00   0.00  0.00  0.00  1.00  0.00  0.00  0.00  0.00  0.00
  WS02006243WS02006242    1.00   0.00  0.00  0.00  0.99  0.00  0.00  0.01  0.78  0.00
  WS02006245WS02006243    1.00   0.00  0.00  0.00  0.41  0.00  0.00  0.58  0.01  0.00
  WS02006247WS02006245    1.00   0.00  0.00  0.00  0.99  0.00  0.00  0.01  0.00  0.00
  WS02006248WS02006247    1.00   0.00  0.00  0.00  0.99  0.00  0.00  0.01  0.24  0.00
  WS02006249WS02006248    1.00   0.00  0.00  0.00  0.26  0.00  0.74  0.00  0.00  0.00
  WS02006251WS02006249    1.00   0.00  0.00  0.00  0.99  0.01  0.00  0.00  0.78  0.00
  WS02006252WS02006251    1.00   0.00  0.79  0.00  0.06  0.00  0.15  0.00  0.00  0.00
  WS02006256WS02006235    1.00   0.00  0.00  0.00  0.99  0.01  0.00  0.00  0.00  0.00
  WSF200WS02003060        1.00   0.00  0.13  0.00  0.74  0.13  0.00  0.00  0.73  0.00
  YS02001580YS02001583    1.00   0.25  0.61  0.00  0.14  0.00  0.00  0.00  0.70  0.00
  YS02001583YS02001586    1.00   0.51  0.29  0.00  0.19  0.00  0.00  0.00  0.70  0.00
  YS02001586YS02001590    1.00   0.13  0.00  0.00  0.35  0.04  0.00  0.48  0.33  0.00
  YS02001590YS02001593    1.00   0.13  0.01  0.00  0.06  0.00  0.80  0.00  0.00  0.00
  YS02001593YS02001596    1.00   0.14  0.00  0.00  0.07  0.01  0.00  0.78  0.01  0.00
  YS02001596YS02001600    1.00   0.14  0.00  0.00  0.13  0.02  0.00  0.71  0.05  0.00
  YS02001600YS02001601    1.00   0.13  0.01  0.00  0.86  0.00  0.00  0.00  0.66  0.00
  YS02001601YS02001602    1.00   0.13  0.01  0.00  0.86  0.00  0.00  0.00  0.00  0.00
  YS02001602YS02001605    1.00   0.14  0.00  0.00  0.86  0.00  0.00  0.00  0.00  0.00
  YS02001605YS02001607    1.00   0.14  0.00  0.00  0.86  0.00  0.00  0.00  0.00  0.00
  YS02001607YS02001610    1.00   0.13  0.01  0.00  0.86  0.00  0.00  0.00  0.02  0.00
  YS02001610YS02001613    1.00   0.13  0.00  0.00  0.87  0.00  0.00  0.00  0.01  0.00
  YS02001613YS02001616    1.00   0.13  0.00  0.00  0.87  0.00  0.00  0.00  0.01  0.00
  YS02001616YS02001619    1.00   0.13  0.00  0.00  0.87  0.00  0.00  0.00  0.00  0.00
  YS02001619YS02001622    1.00   0.13  0.00  0.00  0.87  0.00  0.00  0.00  0.36  0.00
  YS02001622YS02001625    1.00   0.13  0.00  0.00  0.87  0.00  0.00  0.00  0.06  0.00
  YS02001625YS02001629    1.00   0.13  0.06  0.00  0.09  0.00  0.71  0.00  0.00  0.00
  YS02001629YS02163301    1.00   0.17  0.01  0.00  0.82  0.00  0.00  0.00  0.00  0.00
  YS02001633YS02163601    1.00   0.00  0.01  0.00  0.99  0.00  0.00  0.00  0.16  0.00
  YS02001641YS02001644    1.00   0.00  0.01  0.00  0.99  0.00  0.00  0.00  0.00  0.00
  YS02001644YS02001647    1.00   0.00  0.19  0.00  0.81  0.00  0.00  0.00  0.00  0.00
  YS02001647YS02001649    1.00   0.00  0.19  0.00  0.53  0.27  0.00  0.00  0.61  0.00
  YS02001649YS02001757    1.00   0.00  0.00  0.00  0.69  0.31  0.00  0.00  0.60  0.00
  YS02001652YS02001649    1.00   0.00  0.00  0.00  0.95  0.05  0.00  0.00  0.82  0.00
  YS02001655YS02001652    1.00   0.00  0.00  0.00  0.10  0.02  0.00  0.88  0.05  0.00
  YS02001658YS02001655    1.00   0.00  0.15  0.00  0.62  0.23  0.00  0.00  0.76  0.00
  YS02001661YS02001658    1.00   0.15  0.00  0.00  0.49  0.37  0.00  0.00  0.75  0.00
  YS02001664YS02001661    1.00   0.13  0.00  0.00  0.78  0.09  0.00  0.00  0.87  0.00
  YS02001745YS02001748    1.00   0.00  0.00  0.00  0.03  0.01  0.00  0.96  0.04  0.00
  YS02001748YS02001751    1.00   0.00  0.00  0.00  0.81  0.19  0.00  0.00  0.82  0.00
  YS02001751YS02001754    1.00   0.00  0.00  0.00  0.08  0.00  0.00  0.92  0.02  0.00
  YS02001754YS02001757    1.00   0.00  0.00  0.00  1.00  0.00  0.00  0.00  0.91  0.00
  YS02001757CaochengTiaoxuchi    1.00   0.00  0.00  0.00  1.00  0.00  0.00  0.00  0.90  0.00
  YS02001759YS02001757    1.00   0.00  0.00  0.00  1.00  0.00  0.00  0.00  0.65  0.00
  YS02001762YS02001759    1.00   0.00  0.00  0.00  1.00  0.00  0.00  0.00  0.05  0.00
  YS02001765YS02001762    1.00   0.00  0.00  0.00  1.00  0.00  0.00  0.00  0.80  0.00
  YS02001767YS02001765    1.00   0.00  0.00  0.00  1.00  0.00  0.00  0.00  0.00  0.00
  YS02001770YS02001767    1.00   0.00  0.00  0.00  1.00  0.00  0.00  0.00  0.00  0.00
  YS02001774YS02001770    1.00   0.00  0.14  0.00  0.59  0.00  0.28  0.00  0.04  0.00
  YS02001779YS02001774    1.00   0.00  0.00  0.00  1.00  0.00  0.00  0.00  0.86  0.00
  YS02001783YS02001784    1.00   0.00  0.20  0.00  0.80  0.00  0.00  0.00  0.59  0.00
  YS02001784YS02001785    1.00   0.00  0.00  0.00  1.00  0.00  0.00  0.00  0.19  0.00
  YS02001786YS02001788    1.00   0.00  0.00  0.00  0.81  0.19  0.00  0.00  0.00  0.00
  YS02001788YS02001790    1.00   0.00  0.00  0.00  0.21  0.79  0.00  0.00  0.87  0.00
  YS02001790YS02001791    1.00   0.00  0.00  0.00  0.01  0.99  0.00  0.00  0.14  0.00
  YS02001791YS02001793    1.00   0.00  0.00  0.00  0.00  1.00  0.00  0.00  0.00  0.00
  YS02001793JiankangQianchi    1.00   0.00  0.00  0.00  1.00  0.00  0.00  0.00  0.98  0.00
  YS02001882YS02001884    1.00   0.16  0.01  0.00  0.82  0.00  0.00  0.00  0.00  0.00
  YS02001884YS02001887    1.00   0.06  0.05  0.00  0.89  0.00  0.00  0.00  0.00  0.00
  YS02001887YS02001890    1.00   0.00  0.00  0.00  0.97  0.00  0.03  0.00  0.00  0.00
  YS02001890YS02001895    1.00   0.00  0.18  0.00  0.82  0.00  0.00  0.00  0.00  0.00
  YS02001895YS02001898    1.00   0.18  0.00  0.00  0.80  0.00  0.02  0.00  0.00  0.00
  YS02001898YS02001901    1.00   0.18  0.01  0.00  0.81  0.00  0.00  0.00  0.01  0.00
  YS02001901YS02001904    1.00   0.18  0.00  0.00  0.82  0.00  0.00  0.00  0.00  0.00
  YS02001904YS02001907    1.00   0.00  0.18  0.00  0.82  0.00  0.00  0.00  0.00  0.00
  YS02001907YS02006553    1.00   0.00  0.02  0.00  0.98  0.00  0.00  0.00  0.00  0.00
  YS02001910YS02001907    1.00   0.00  0.00  0.00  0.97  0.00  0.00  0.03  0.12  0.00
  YS02001915YS02001910    1.00   0.00  0.00  0.00  0.96  0.04  0.00  0.00  0.18  0.00
  YS02001918YS02001915    1.00   0.00  0.01  0.00  0.98  0.02  0.00  0.00  0.80  0.00
  YS02001920YS02001918    1.00   0.00  0.01  0.00  0.99  0.00  0.00  0.00  0.00  0.00
  YS02001923YS02001920    1.00   0.00  0.00  0.00  1.00  0.00  0.00  0.00  0.96  0.00
  YS02001926YS02001923    1.00   0.00  0.07  0.00  0.02  0.00  0.90  0.00  0.00  0.00
  YS02001929YS02001926    1.00   0.00  0.13  0.00  0.87  0.00  0.00  0.00  0.86  0.00
  YS02006553YS02006556    1.00   0.01  0.00  0.00  0.99  0.00  0.00  0.00  0.03  0.00
  YS02006556YS02006558    1.00   0.00  0.00  0.00  1.00  0.00  0.00  0.00  0.00  0.00
  YS02006558YS02006561    1.00   0.20  0.00  0.00  0.02  0.78  0.00  0.00  0.18  0.00
  YS02006561YS02001783    1.00   0.20  0.00  0.00  0.04  0.76  0.00  0.00  0.73  0.00
  YS02163301YS02001633    1.00   0.00  0.17  0.00  0.83  0.00  0.00  0.00  0.00  0.00
  YS02163601YS02164001    1.00   0.00  0.08  0.00  0.92  0.00  0.00  0.00  0.00  0.00
  YS02164001YS02001641    1.00   0.01  0.07  0.00  0.92  0.00  0.00  0.00  0.06  0.00
  
  
  *************************
  Conduit Surcharge Summary
  *************************
  
  ----------------------------------------------------------------------------
                                                           Hours        Hours 
                         --------- Hours Full --------   Above Full   Capacity
  Conduit                Both Ends  Upstream  Dnstream   Normal Flow   Limited
  ----------------------------------------------------------------------------
  WS02003072WS02003073        0.01      0.01      0.01      1.16         0.01
  WS02004404WS02004405        0.01      0.01      0.01      1.60         0.01
  WS02004405WS02004406        0.01      0.01      0.01      0.30         0.01
  WS02006109WS02006110        0.38      0.38      1.07      0.45         0.01
  WS02006110WS02006113        0.01      0.01      1.07      0.01         0.01
  WS02006111WS02006112        0.01      0.01      1.13      0.01         0.01
  WS02006112WS02006115        0.01      0.01      0.36      0.01         0.01
  WS02006228WS02006109        1.06      1.07      1.06      1.20         1.06
  WS02006229WS02006228        1.05      1.06      1.05      1.12         1.04
  WS02006230WS02006229        1.08      1.09      1.08      2.17         1.08
  WS02006231WS02006230        0.38      0.38      0.51      1.84         0.01
  WS02006232WS02006231        0.47      0.47      1.07      0.52         0.01
  WS02006234WS02006232        1.02      1.02      1.07      0.51         0.49
  WS02006235WS02006234        0.70      0.71      1.04      1.64         0.01
  WS02006238WS02006235        1.05      1.05      1.07      0.01         0.01
  WS02006239WS02006238        1.04      1.05      1.06      1.01         0.90
  WS02006240WS02006239        1.01      1.02      1.02      1.02         0.87
  WS02006242WS02006240        1.02      1.02      1.05      1.10         0.01
  WS02006243WS02006242        1.01      1.01      1.03      0.01         0.03
  WS02006245WS02006243        1.00      1.00      1.01      0.64         0.58
  WS02006247WS02006245        1.00      1.00      1.00      1.24         0.99
  WS02006248WS02006247        0.99      0.99      1.00      0.01         0.03
  WS02006249WS02006248        0.99      0.99      0.99      1.22         0.01
  WS02006251WS02006249        0.99      0.99      0.99      1.11         0.94
  WS02006252WS02006251        1.20      1.20      1.20      1.20         0.01
  WS02006256WS02006235        1.70      1.73      3.86      0.88         0.01
  YS02001580YS02001583        0.20      0.21      0.25      0.01         0.01
  YS02001583YS02001586        0.21      0.21      0.34      0.01         0.01
  YS02001586YS02001590        0.35      0.35      0.40      0.01         0.01
  YS02001590YS02001593        0.40      0.40      0.41      0.43         0.01
  YS02001593YS02001596        0.41      0.41      0.48      0.01         0.01
  YS02001596YS02001600        0.51      0.51      0.58      0.01         0.01
  YS02001600YS02001601        0.63      0.63      0.87      0.01         0.01
  YS02001601YS02001602        0.77      0.77      0.91      0.58         0.01
  YS02001602YS02001605        0.72      0.72      0.77      1.72         0.01
  YS02001605YS02001607        0.69      0.72      0.69      0.83         0.69
  YS02001607YS02001610        0.36      0.36      0.38      0.01         0.01
  YS02001610YS02001613        0.35      0.35      0.38      0.01         0.01
  YS02001613YS02001616        0.32      0.32      0.35      0.01         0.01
  YS02001616YS02001619        0.31      0.31      0.32      0.01         0.01
  YS02001619YS02001622        0.31      0.31      0.31      0.42         0.29
  YS02001622YS02001625        0.31      0.31      0.44      0.01         0.01
  YS02001625YS02001629        0.27      0.27      0.44      0.01         0.01
  YS02001629YS02163301        0.44      0.44      0.44      0.17         0.15
  YS02001633YS02163601        0.46      0.46      0.48      0.33         0.32
  YS02001641YS02001644        0.37      0.40      0.37      0.97         0.37
  YS02001644YS02001647        0.20      0.20      0.37      0.04         0.01
  YS02001647YS02001649        0.20      0.20      0.29      0.01         0.01
  YS02001649YS02001757        0.28      0.29      0.32      0.16         0.12
  YS02001652YS02001649        0.15      0.15      0.29      0.01         0.01
  YS02001655YS02001652        0.01      0.01      0.14      0.01         0.01
  YS02001658YS02001655        0.01      0.01      0.01      0.01         0.01
  YS02001751YS02001754        0.01      0.01      0.03      0.01         0.01
  YS02001754YS02001757        0.07      0.07      0.32      0.01         0.01
  YS02001757CaochengTiaoxuchi        0.32      0.32      0.76      0.15         0.12
  YS02001759YS02001757        0.24      0.24      0.32      0.01         0.01
  YS02001762YS02001759        0.22      0.22      0.24      0.01         0.01
  YS02001765YS02001762        0.18      0.18      0.22      0.01         0.01
  YS02001767YS02001765        0.16      0.16      0.18      0.01         0.01
  YS02001770YS02001767        0.16      0.16      0.16      0.25         0.09
  YS02001774YS02001770        0.14      0.14      0.21      0.01         0.01
  YS02001779YS02001774        0.03      0.03      0.21      0.01         0.01
  YS02001783YS02001784        0.21      0.23      0.21      0.34         0.21
  YS02001784YS02001785        0.11      0.21      0.11      0.48         0.11
  YS02001786YS02001788        0.01      0.11      0.01      0.41         0.01
  YS02001790YS02001791        0.01      0.01      0.01      0.20         0.01
  YS02001793JiankangQianchi        0.01      0.01      7.70      0.01         0.01
  YS02001882YS02001884        0.19      0.19      0.20      0.01         0.01
  YS02001884YS02001887        0.22      0.22      0.23      0.01         0.01
  YS02001887YS02001890        0.24      0.24      0.24      0.01         0.01
  YS02001890YS02001895        0.18      0.18      0.26      0.01         0.01
  YS02001895YS02001898        0.17      0.17      0.18      0.01         0.01
  YS02001898YS02001901        0.18      0.18      0.21      0.01         0.01
  YS02001901YS02001904        0.20      0.20      0.21      0.01         0.01
  YS02001904YS02001907        0.20      0.20      0.39      0.01         0.01
  YS02001907YS02006553        0.49      0.49      0.54      0.01         0.01
  YS02001910YS02001907        0.26      0.26      0.38      0.01         0.01
  YS02001915YS02001910        0.18      0.18      0.26      0.01         0.01
  YS02001918YS02001915        0.10      0.10      0.18      0.01         0.01
  YS02001920YS02001918        0.10      0.10      0.11      0.01         0.01
  YS02001923YS02001920        0.04      0.04      0.11      0.01         0.01
  YS02001926YS02001923        0.01      0.01      0.01      0.01         0.01
  YS02001929YS02001926        0.01      0.01      0.01      0.01         0.01
  YS02006553YS02006556        0.32      0.32      0.39      0.01         0.01
  YS02006556YS02006558        0.36      0.36      0.40      0.01         0.01
  YS02006558YS02006561        0.13      0.31      0.13      0.46         0.13
  YS02006561YS02001783        0.06      0.06      0.23      0.01         0.01
  YS02163301YS02001633        0.44      0.44      0.47      0.01         0.01
  YS02163601YS02164001        0.41      0.41      0.48      0.09         0.01
  YS02164001YS02001641        0.40      0.41      0.40      0.50         0.40
  
  
  ***************
  Pumping Summary
  ***************
  
  ---------------------------------------------------------------------------------------------------------
                                                  Min       Avg       Max     Total     Power    % Time Off
                        Percent   Number of      Flow      Flow      Flow    Volume     Usage    Pump Curve
  Pump                 Utilized   Start-Ups       LPS       LPS       LPS  10^6 ltr     Kw-hr    Low   High
  ---------------------------------------------------------------------------------------------------------
  CC-R1                   14.14          17      0.00    683.00    683.00     2.781     49.71    0.0   39.1
  CC-R2                   12.52          17      0.00    683.00    683.00     2.462     43.80    0.0   44.1
  CC-S1                   16.30          17      0.00    200.00    200.00     0.939      5.86    0.0    0.0
  CC-S2                   15.02          17      0.00    200.00    200.00     0.865      5.41    0.0    0.0
  JK-R1                    4.64           8      0.00   1000.00   1000.00     1.336     15.29    0.0    0.0
  JK-R2                    0.16           1      0.00   1000.00   1000.00     0.047      0.36    0.0    0.0
  JK-S                    10.94          13      0.00    300.00    300.00     0.945     13.53    0.0    0.0
  XR-1                    97.91           2      0.00     95.00     95.00     2.679      9.60    0.0    0.0
  XR-2                    93.94           2      0.00     95.00     95.00     2.570      8.76    0.0    0.0
  XR-3                     0.00           1      0.00     95.00     95.00     0.000      0.00    0.0    0.0
  XR-4                     0.00           1      0.00     95.00     95.00     0.000      0.00    0.0    0.0
  

  Analysis begun on:  Wed Nov  5 16:30:57 2025
  Analysis ended on:  Wed Nov  5 16:30:59 2025
  Total elapsed time: 00:00:02