
  EPA STORM WATER MANAGEMENT MODEL - VERSION 5.2 (Build 5.2.4)
  PYSWMM TOOLKIT API - VERSION v1.0 (2023-11-27)
  ------------------------------------------------------------

  WARNING 04: minimum elevation drop used for Conduit WS02004404WS02004405
  WARNING 03: negative offset ignored for Link YS02001904YS02001907
  
  ****************
  Analysis Options
  ****************
  Flow Units ............... LPS
  Process Models:
    Rainfall/Runoff ........ YES
    RDII ................... NO
    Snowmelt ............... NO
    Groundwater ............ NO
    Flow Routing ........... YES
    Ponding Allowed ........ NO
    Water Quality .......... NO
  Infiltration Method ...... HORTON
  Flow Routing Method ...... DYNWAVE
  Surcharge Method ......... EXTRAN
  Starting Date ............ 08/28/2015 08:00:00
  Ending Date .............. 08/28/2015 16:00:00
  Antecedent Dry Days ...... 8.0
  Report Time Step ......... 00:01:00
  Wet Time Step ............ 00:01:00
  Dry Time Step ............ 00:01:00
  Routing Time Step ........ 30.00 sec
  Variable Time Step ....... YES
  Maximum Trials ........... 8
  Number of Threads ........ 4
  Head Tolerance ........... 0.001500 m
  
  
  **************************        Volume         Depth
  Runoff Quantity Continuity     hectare-m            mm
  **************************     ---------       -------
  Initial LID Storage ......         0.049         1.488
  Total Precipitation ......         2.612        78.741
  Evaporation Loss .........         0.000         0.000
  Infiltration Loss ........         0.078         2.357
  Surface Runoff ...........         1.958        59.019
  Final Storage ............         0.626        18.876
  Continuity Error (%) .....        -0.030
  
  
  **************************        Volume        Volume
  Flow Routing Continuity        hectare-m      10^6 ltr
  **************************     ---------     ---------
  Dry Weather Inflow .......         0.602         6.020
  Wet Weather Inflow .......         1.958        19.577
  Groundwater Inflow .......         0.000         0.000
  RDII Inflow ..............         0.000         0.000
  External Inflow ..........         0.105         1.045
  External Outflow .........         2.033        20.325
  Flooding Loss ............         0.612         6.117
  Evaporation Loss .........         0.000         0.000
  Exfiltration Loss ........         0.000         0.000
  Initial Stored Volume ....         0.303         3.031
  Final Stored Volume ......         0.330         3.302
  Continuity Error (%) .....        -0.237
  
  
  *************************
  Highest Continuity Errors
  *************************
  Node YS02001583 (-5.94%)
  Node YS02001884 (5.34%)
  
  
  ***************************
  Time-Step Critical Elements
  ***************************
  Link WS02004404WS02004405 (32.94%)
  Link WS02006238WS02006235 (18.54%)
  Link YS02001791YS02001793 (11.98%)
  Link WS02003066WSF200 (8.92%)
  Link WS02006252WS02006251 (7.74%)
  
  
  ********************************
  Highest Flow Instability Indexes
  ********************************
  Link WS02006113WS02006111 (29)
  Link WS02006238WS02006235 (26)
  Link WS02006252WS02006251 (24)
  Link WS02006235WS02006234 (20)
  Link WS02006111WS02006112 (19)
  
  
  *********************************
  Most Frequent Nonconverging Nodes
  *********************************
  Node CC-1 (18.80%)
  Node CC-2 (18.80%)
  Node JK-1 (18.80%)
  Node JK-2 (18.80%)
  Node WSC (18.80%)
  
  
  *************************
  Routing Time Step Summary
  *************************
  Minimum Time Step           :     0.03 sec
  Average Time Step           :     3.38 sec
  Maximum Time Step           :     7.04 sec
  % of Time in Steady State   :     0.00
  Average Iterations per Step :     3.71
  % of Steps Not Converging   :    18.80
  Time Step Frequencies       :
     30.000 - 13.228 sec      :     0.00 %
     13.228 -  5.833 sec      :    22.53 %
      5.833 -  2.572 sec      :    33.24 %
      2.572 -  1.134 sec      :    29.39 %
      1.134 -  0.500 sec      :    14.83 %
  
  
  ***************************
  Subcatchment Runoff Summary
  ***************************
  
  ------------------------------------------------------------------------------------------------------------------------------
                            Total      Total      Total      Total     Imperv       Perv      Total       Total     Peak  Runoff
                           Precip      Runon       Evap      Infil     Runoff     Runoff     Runoff      Runoff   Runoff   Coeff
  Subcatchment                 mm         mm         mm         mm         mm         mm         mm    10^6 ltr      LPS
  ------------------------------------------------------------------------------------------------------------------------------
  sub60                     78.74       0.00       0.00       1.41      52.56       5.88      58.44        0.77   516.76   0.742
  sub61                     78.74       0.00       0.00       2.17      52.51       8.78      61.29        1.12   753.63   0.778
  sub62                     78.74       0.00       0.00       0.96      55.98       4.00      59.98        1.64  1030.59   0.762
  sub63                     78.74       0.00       0.00       3.95      44.97      14.75      59.72        1.36   850.49   0.758
  sub64                     78.74       0.00       0.00       1.90      51.21       7.30      58.52        1.41   838.42   0.743
  sub65                     78.74       0.00       0.00       1.74      55.28       6.67      61.95        1.71   981.66   0.787
  sub66                     78.74       0.00       0.00       4.58      43.50      13.53      57.03        2.66  1270.74   0.724
  sub67                     78.74       0.00       0.00       0.95      57.39       4.13      61.51        1.14   795.91   0.781
  sub68                     78.74       0.00       0.00       1.66      50.69       6.74      57.42        1.58  1029.04   0.729
  sub69                     78.74       0.00       0.00       1.52      52.96       7.84      60.80        2.25  1270.46   0.772
  sub70                     78.74       0.00       0.00       5.06      42.44      16.86      59.30        1.71   731.78   0.753
  sub71                     78.74       0.00       0.00       0.88      50.86       3.62      54.48        1.42   847.63   0.692
  sub72                     78.74       0.00       0.00       0.84      54.94       3.37      58.31        0.80   437.40   0.741
  

  ***********************
  LID Performance Summary
  ***********************

  --------------------------------------------------------------------------------------------------------------------
                                         Total      Evap     Infil   Surface    Drain    Initial     Final  Continuity
                                        Inflow      Loss      Loss   Outflow   Outflow   Storage   Storage       Error
  Subcatchment      LID Control             mm        mm        mm        mm        mm        mm        mm           %
  --------------------------------------------------------------------------------------------------------------------
  sub60             GreenRoof            78.74      0.00      0.00      0.00      0.00      7.05     85.83       -0.05
  sub61             GreenRoof            78.74      0.00      0.00      0.00      0.00      7.05     85.83       -0.05
  sub62             GreenRoof            78.74      0.00      0.00      0.00      0.00      7.05     85.83       -0.05
  sub63             GreenRoof            78.74      0.00      0.00      0.00      0.00      7.05     85.83       -0.05
  sub64             GreenRoof            78.74      0.00      0.00      0.00      0.00      7.05     85.83       -0.05
  sub65             GreenRoof            78.74      0.00      0.00      0.00      0.00      7.05     85.83       -0.05
  sub66             GreenRoof            78.74      0.00      0.00      0.00      0.00      7.05     85.83       -0.05
  sub67             GreenRoof            78.74      0.00      0.00      0.00      0.00      7.05     85.83       -0.05
  sub68             GreenRoof            78.74      0.00      0.00      0.00      0.00      7.05     85.83       -0.05
  sub69             GreenRoof            78.74      0.00      0.00      0.00      0.00      7.05     85.83       -0.05
  sub70             GreenRoof            78.74      0.00      0.00      0.00      0.00      7.05     85.83       -0.05
  sub71             GreenRoof            78.74      0.00      0.00      0.00      0.00      7.05     85.83       -0.05
  sub72             GreenRoof            78.74      0.00      0.00      0.00      0.00      7.05     85.83       -0.05
  
  ******************
  Node Depth Summary
  ******************
  
  ---------------------------------------------------------------------------------
                                 Average  Maximum  Maximum  Time of Max    Reported
                                   Depth    Depth      HGL   Occurrence   Max Depth
  Node                 Type       Meters   Meters   Meters  days hr:min      Meters
  ---------------------------------------------------------------------------------
  WS02001211           JUNCTION     0.60     0.64     5.48     0  02:29        0.64
  WS02001212           JUNCTION     0.34     0.38     5.45     0  02:39        0.38
  WS02001213           JUNCTION     0.54     0.65     5.41     0  02:27        0.65
  WS02003059           JUNCTION     0.60     0.72     5.40     0  02:38        0.72
  WS02003060           JUNCTION     0.31     0.45     5.39     0  02:37        0.45
  WS02003066           JUNCTION     0.17     0.30     5.85     0  02:25        0.30
  WS02003067           JUNCTION     0.45     0.70     6.02     0  02:25        0.70
  WS02003069           JUNCTION     0.35     0.51     5.10     0  02:27        0.51
  WS02003072           JUNCTION     0.41     0.58     4.95     0  02:27        0.58
  WS02003073           JUNCTION     0.24     0.35     4.41     0  02:28        0.35
  WS02004138           JUNCTION     0.13     0.14     7.39     0  00:29        0.14
  WS02004139           JUNCTION     0.54     0.58     5.49     0  02:29        0.58
  WS02004401           JUNCTION     0.54     0.85     6.85     0  02:32        0.85
  WS02004402           JUNCTION     0.57     0.88     6.84     0  02:33        0.88
  WS02004403           JUNCTION     0.59     0.89     6.82     0  02:33        0.89
  WS02004404           JUNCTION     0.67     0.96     6.81     0  02:33        0.96
  WS02004405           JUNCTION     0.67     0.96     6.81     0  02:33        0.96
  WS02004406           JUNCTION     0.68     0.96     6.79     0  02:33        0.96
  WS02004407           JUNCTION     0.15     0.30     6.61     0  02:33        0.30
  WS02004409           JUNCTION     0.33     0.67     6.44     0  02:24        0.67
  WS02004410           JUNCTION     0.36     0.68     6.40     0  02:24        0.68
  WS02004411           JUNCTION     0.38     0.69     6.37     0  02:25        0.69
  WS02004412           JUNCTION     0.41     0.70     6.34     0  02:25        0.70
  WS02004413           JUNCTION     0.56     0.86     6.33     0  02:25        0.86
  WS02006109           JUNCTION     0.60     1.19     7.81     0  03:14        1.01
  WS02006110           JUNCTION     0.60     1.30     7.88     0  03:14        0.93
  WS02006111           JUNCTION     0.15     0.29     7.00     0  03:14        0.29
  WS02006112           JUNCTION     0.69     1.09     6.97     0  03:14        1.05
  WS02006113           JUNCTION     0.23     0.46     7.36     0  03:14        0.46
  WS02006115           JUNCTION     0.43     0.75     6.89     0  02:22        0.75
  WS02006116           JUNCTION     0.51     0.83     6.87     0  02:32        0.83
  WS02006228           JUNCTION     0.60     1.26     7.91     0  03:14        1.11
  WS02006229           JUNCTION     0.57     1.31     8.00     0  03:14        1.16
  WS02006230           JUNCTION     0.57     1.54     8.28     0  03:14        1.27
  WS02006231           JUNCTION     0.39     1.63     8.75     0  03:14        1.63
  WS02006232           JUNCTION     0.52     2.04     9.08     0  03:14        2.04
  WS02006234           JUNCTION     0.45     1.96     9.12     0  03:14        1.96
  WS02006235           JUNCTION     0.50     1.74     8.90     0  03:14        1.74
  WS02006238           JUNCTION     0.53     1.71     8.85     0  03:14        1.71
  WS02006239           JUNCTION     0.49     1.62     8.83     0  03:14        1.50
  WS02006240           JUNCTION     0.46     1.56     8.85     0  02:55        1.34
  WS02006242           JUNCTION     0.52     1.55     8.82     0  02:55        1.39
  WS02006243           JUNCTION     0.44     1.41     8.83     0  02:55        1.28
  WS02006245           JUNCTION     0.45     1.33     8.81     0  02:55        1.25
  WS02006247           JUNCTION     0.46     1.27     8.77     0  02:55        1.23
  WS02006248           JUNCTION     0.43     1.10     8.69     0  02:04        1.10
  WS02006249           JUNCTION     0.46     1.09     8.69     0  01:48        1.09
  WS02006251           JUNCTION     0.45     1.36     9.03     0  01:48        1.22
  WS02006252           JUNCTION     0.29     1.50     9.74     0  00:00        0.79
  WS02006256           JUNCTION     1.17     2.35     9.28     0  00:00        2.35
  WSF200               JUNCTION     0.15     0.31     5.54     0  02:37        0.31
  YS02001580           JUNCTION     0.14     1.05     9.59     0  01:44        0.77
  YS02001583           JUNCTION     0.17     1.14     9.64     0  01:43        1.14
  YS02001586           JUNCTION     0.28     1.13     9.30     0  01:43        1.13
  YS02001590           JUNCTION     0.40     1.40     9.26     0  01:41        1.40
  YS02001593           JUNCTION     0.33     1.36     9.23     0  01:41        1.32
  YS02001596           JUNCTION     0.46     1.68     9.10     0  01:44        1.68
  YS02001600           JUNCTION     0.56     1.87     9.00     0  01:44        1.87
  YS02001601           JUNCTION     0.75     2.06     8.90     0  01:41        2.06
  YS02001602           JUNCTION     0.64     1.87     8.77     0  01:43        1.87
  YS02001605           JUNCTION     0.59     1.78     8.68     0  01:43        1.78
  YS02001607           JUNCTION     0.56     1.68     8.53     0  01:43        1.68
  YS02001610           JUNCTION     0.60     1.68     8.48     0  01:43        1.68
  YS02001613           JUNCTION     0.56     1.70     8.54     0  01:43        1.66
  YS02001616           JUNCTION     0.49     1.61     8.52     0  01:43        1.60
  YS02001619           JUNCTION     0.47     1.61     8.54     0  01:43        1.61
  YS02001622           JUNCTION     0.46     1.62     8.52     0  01:43        1.58
  YS02001625           JUNCTION     0.71     1.78     8.38     0  01:43        1.78
  YS02001629           JUNCTION     0.61     1.85     8.40     0  01:43        1.85
  YS02001633           JUNCTION     0.68     2.05     8.50     0  02:14        2.04
  YS02001641           JUNCTION     0.65     1.97     8.41     0  01:47        1.94
  YS02001644           JUNCTION     0.64     1.92     8.35     0  01:47        1.92
  YS02001647           JUNCTION     0.42     1.81     8.42     0  01:47        1.73
  YS02001649           JUNCTION     0.48     2.05     8.44     0  01:47        1.94
  YS02001652           JUNCTION     0.36     1.99     8.58     0  01:47        1.77
  YS02001655           JUNCTION     0.27     1.94     8.79     0  01:47        1.56
  YS02001658           JUNCTION     0.20     1.92     9.07     0  01:47        1.31
  YS02001661           JUNCTION     0.19     1.55     8.95     0  01:47        1.07
  YS02001664           JUNCTION     0.08     0.98     8.91     0  01:48        0.65
  YS02001745           JUNCTION     0.10     1.76     9.28     0  01:47        0.93
  YS02001748           JUNCTION     0.18     2.09     9.17     0  01:47        1.31
  YS02001751           JUNCTION     0.23     2.17     9.04     0  01:47        1.46
  YS02001754           JUNCTION     0.32     2.20     8.81     0  01:47        1.69
  YS02001757           JUNCTION     0.49     2.21     8.47     0  01:47        2.01
  YS02001759           JUNCTION     0.44     2.20     8.57     0  01:47        2.08
  YS02001762           JUNCTION     0.43     2.15     8.55     0  01:46        2.09
  YS02001765           JUNCTION     0.41     2.10     8.55     0  01:46        2.06
  YS02001767           JUNCTION     0.40     2.03     8.52     0  01:46        2.00
  YS02001770           JUNCTION     0.41     1.95     8.44     0  01:46        1.95
  YS02001774           JUNCTION     0.47     2.05     8.47     0  01:46        2.00
  YS02001779           JUNCTION     0.30     1.68     8.37     0  01:46        1.68
  YS02001783           JUNCTION     0.31     1.39     7.53     0  01:46        1.24
  YS02001784           JUNCTION     0.32     1.21     7.28     0  01:46        1.12
  YS02001786           JUNCTION     0.27     0.95     6.98     0  01:46        0.87
  YS02001788           JUNCTION     0.20     0.62     6.60     0  01:47        0.62
  YS02001790           JUNCTION     0.23     0.72     6.37     0  01:50        0.71
  YS02001791           JUNCTION     0.15     0.44     5.91     0  01:50        0.42
  YS02001793           JUNCTION     0.08     0.30     5.14     0  01:48        0.30
  YS02001882           JUNCTION     0.38     1.79     8.51     0  01:45        1.64
  YS02001884           JUNCTION     0.47     1.86     8.48     0  01:45        1.73
  YS02001887           JUNCTION     0.55     1.88     8.42     0  01:45        1.83
  YS02001890           JUNCTION     0.58     1.81     8.32     0  01:45        1.81
  YS02001895           JUNCTION     0.35     1.62     8.37     0  01:46        1.57
  YS02001898           JUNCTION     0.36     1.65     8.39     0  01:46        1.58
  YS02001901           JUNCTION     0.47     1.75     8.36     0  01:46        1.69
  YS02001904           JUNCTION     0.45     1.68     8.31     0  01:46        1.64
  YS02001907           JUNCTION     0.76     1.96     8.25     0  01:46        1.96
  YS02001910           JUNCTION     0.57     1.99     8.50     0  01:47        1.90
  YS02001915           JUNCTION     0.39     1.95     8.67     0  01:47        1.80
  YS02001918           JUNCTION     0.21     1.81     8.88     0  01:47        1.50
  YS02001920           JUNCTION     0.29     2.11     9.12     0  01:47        1.56
  YS02001923           JUNCTION     0.16     2.03     9.29     0  01:47        1.30
  YS02001926           JUNCTION     0.19     1.90     9.35     0  01:47        1.13
  YS02001929           JUNCTION     0.11     1.78     9.47     0  01:47        0.88
  YS02006553           JUNCTION     0.77     2.01     8.29     0  01:46        1.97
  YS02006556           JUNCTION     0.74     2.02     8.33     0  01:46        1.96
  YS02006558           JUNCTION     0.78     2.08     8.34     0  01:46        2.00
  YS02006561           JUNCTION     0.19     1.15     7.81     0  01:46        0.90
  YS02163301           JUNCTION     0.63     1.94     8.46     0  02:14        1.93
  YS02163601           JUNCTION     0.71     2.08     8.48     0  02:14        2.04
  YS02164001           JUNCTION     0.64     2.01     8.47     0  02:14        1.96
  CC-1                 OUTFALL      0.00     0.00     0.00     0  00:00        0.00
  CC-2                 OUTFALL      0.00     0.00     0.00     0  00:00        0.00
  JK-1                 OUTFALL      0.00     0.00     0.00     0  00:00        0.00
  JK-2                 OUTFALL      0.00     0.00     0.00     0  00:00        0.00
  WSC                  OUTFALL      0.24     0.35     1.02     0  02:28        0.35
  CC-storage           STORAGE      0.89     1.71     7.21     0  02:20        1.71
  JK-storage           STORAGE      3.04     4.24     5.04     0  01:48        4.19
  XR-storage           STORAGE      7.82     9.26     7.26     0  08:00        9.26
  
  
  *******************
  Node Inflow Summary
  *******************
  
  -------------------------------------------------------------------------------------------------
                                  Maximum  Maximum                  Lateral       Total        Flow
                                  Lateral    Total  Time of Max      Inflow      Inflow     Balance
                                   Inflow   Inflow   Occurrence      Volume      Volume       Error
  Node                 Type           LPS      LPS  days hr:min    10^6 ltr    10^6 ltr     Percent
  -------------------------------------------------------------------------------------------------
  WS02001211           JUNCTION      7.35   200.51     0  02:48       0.212        5.44       0.611
  WS02001212           JUNCTION      0.00   203.15     0  03:40           0        5.41       0.290
  WS02001213           JUNCTION      0.00   205.42     0  03:40           0        5.39       0.331
  WS02003059           JUNCTION      0.00   210.89     0  03:41           0        5.38       0.592
  WS02003060           JUNCTION     16.53   752.16     0  02:37       0.476        9.61       0.146
  WS02003066           JUNCTION      0.00   537.18     0  02:25           0        3.79       0.033
  WS02003067           JUNCTION      0.00   537.14     0  02:25           0        3.79       0.106
  WS02003069           JUNCTION      0.32   751.55     0  02:38     0.00922         9.6       0.154
  WS02003072           JUNCTION      0.00   751.33     0  02:27           0        9.59       0.211
  WS02003073           JUNCTION      1.82   753.08     0  02:27      0.0524        9.62       0.217
  WS02004138           JUNCTION      0.00   380.00     0  00:00           0        5.25       0.053
  WS02004139           JUNCTION      0.32   191.16     0  00:29     0.00924        5.26       0.509
  WS02004401           JUNCTION      0.00   545.39     0  03:15           0        3.89       0.253
  WS02004402           JUNCTION      0.00   539.78     0  02:32           0        3.88       0.259
  WS02004403           JUNCTION      0.00   539.36     0  02:33           0        3.87       0.254
  WS02004404           JUNCTION      0.16   539.09     0  02:33     0.00467        3.86       0.213
  WS02004405           JUNCTION      0.04   538.90     0  02:33      0.0011        3.86       0.317
  WS02004406           JUNCTION      0.00   539.06     0  02:33           0        3.85       0.529
  WS02004407           JUNCTION      0.00   538.38     0  02:33           0        3.83       0.024
  WS02004409           JUNCTION      0.00   537.96     0  02:33           0        3.82       0.059
  WS02004410           JUNCTION      0.00   537.66     0  02:24           0        3.82       0.102
  WS02004411           JUNCTION      0.00   537.52     0  02:24           0        3.82       0.134
  WS02004412           JUNCTION      0.00   537.36     0  02:25           0        3.81       0.183
  WS02004413           JUNCTION      0.00   537.36     0  02:25           0        3.81       0.330
  WS02006109           JUNCTION      1.23   590.71     0  03:14      0.0354        3.93       0.207
  WS02006110           JUNCTION      0.00   593.10     0  03:14           0        3.92       0.164
  WS02006111           JUNCTION      0.00   572.21     0  03:14           0        3.92       0.016
  WS02006112           JUNCTION      0.00   552.40     0  03:14           0        3.92       0.449
  WS02006113           JUNCTION      0.00   596.59     0  03:14           0        3.92       0.043
  WS02006115           JUNCTION      0.00   570.06     0  03:14           0         3.9       0.157
  WS02006116           JUNCTION      0.00   552.35     0  03:15           0        3.89       0.071
  WS02006228           JUNCTION      0.00   583.46     0  03:14           0         3.9       0.085
  WS02006229           JUNCTION      0.00   581.17     0  03:14           0        3.91       0.126
  WS02006230           JUNCTION     10.28   591.01     0  03:07       0.296        3.91       0.113
  WS02006231           JUNCTION      0.00   578.74     0  03:01           0        3.61      -0.125
  WS02006232           JUNCTION      0.00   578.03     0  03:01           0        3.62       0.281
  WS02006234           JUNCTION      0.00   573.77     0  03:01           0        3.61      -0.257
  WS02006235           JUNCTION      0.00   566.87     0  03:01           0        3.69       0.208
  WS02006238           JUNCTION      0.00   424.66     0  02:40           0        2.54      -0.125
  WS02006239           JUNCTION      0.00   422.92     0  02:40           0         2.5      -0.054
  WS02006240           JUNCTION      0.00   419.91     0  02:40           0        2.46      -0.065
  WS02006242           JUNCTION      0.00   419.68     0  02:40           0        2.43      -0.138
  WS02006243           JUNCTION      0.00   419.51     0  03:15           0        2.41      -0.061
  WS02006245           JUNCTION      0.00   419.18     0  02:40           0        2.42       0.400
  WS02006247           JUNCTION      0.00   419.61     0  02:40           0        2.42      -0.023
  WS02006248           JUNCTION      0.00   421.03     0  02:40           0        2.41      -0.099
  WS02006249           JUNCTION      0.00   458.97     0  00:00           0        2.74       0.472
  WS02006251           JUNCTION      0.08   406.72     0  01:48     0.00222        2.74       0.034
  WS02006252           JUNCTION      0.00   400.00     0  00:00           0        2.73      -0.384
  WS02006256           JUNCTION      0.00   300.00     0  00:00           0        1.75      -0.500
  WSF200               JUNCTION      0.00   537.22     0  02:26           0        3.79       0.011
  YS02001580           JUNCTION      0.00   119.63     0  01:43           0     0.00447       1.488
  YS02001583           JUNCTION      0.00   203.63     0  01:43           0      0.0154      -5.607
  YS02001586           JUNCTION    731.78   731.98     0  01:52        1.71        1.72       0.077
  YS02001590           JUNCTION      0.00   318.47     0  02:04           0        1.34      -0.035
  YS02001593           JUNCTION      0.00   318.06     0  01:48           0        1.34      -0.005
  YS02001596           JUNCTION      0.00   318.20     0  02:01           0        1.34      -0.021
  YS02001600           JUNCTION      0.00   318.10     0  01:56           0        1.34      -0.008
  YS02001601           JUNCTION   1270.46  1587.95     0  01:51        2.25        3.59       0.011
  YS02001602           JUNCTION      0.00   531.32     0  01:43           0        2.27       0.011
  YS02001605           JUNCTION      0.00   531.29     0  01:43           0        2.15       0.014
  YS02001607           JUNCTION      0.00   531.12     0  01:43           0        2.15       0.075
  YS02001610           JUNCTION      0.00   689.74     0  01:52           0        2.35       0.080
  YS02001613           JUNCTION      0.00   547.87     0  01:43           0        1.89       0.065
  YS02001616           JUNCTION      0.00   553.75     0  01:43           0        1.89       0.011
  YS02001619           JUNCTION   1270.74  1270.74     0  01:52        2.66        4.35      -0.008
  YS02001622           JUNCTION      0.00   948.10     0  01:49           0        4.15      -0.008
  YS02001625           JUNCTION      0.00  1294.64     0  01:53           0        4.32       0.196
  YS02001629           JUNCTION      0.00   943.81     0  01:43           0        3.41       0.006
  YS02001633           JUNCTION    981.86  1411.33     0  01:45        1.71         4.9       0.066
  YS02001641           JUNCTION      0.00  1405.31     0  01:45           0        4.68       0.058
  YS02001644           JUNCTION    838.46  1823.26     0  01:45        1.41        6.08       0.049
  YS02001647           JUNCTION      0.00  1822.94     0  01:45           0        5.71       0.003
  YS02001649           JUNCTION      0.00  2047.24     0  01:45           0        7.08       0.005
  YS02001652           JUNCTION      0.00   969.19     0  01:48           0        1.36      -0.068
  YS02001655           JUNCTION      0.15   968.35     0  01:48     0.00443        1.36      -0.116
  YS02001658           JUNCTION      0.00   966.96     0  01:48           0        1.36      -0.101
  YS02001661           JUNCTION      0.00   963.44     0  01:48           0        1.36       0.034
  YS02001664           JUNCTION    850.49   850.49     0  01:50        1.36        1.36      -0.032
  YS02001745           JUNCTION    516.76   654.40     0  01:47       0.768       0.771       0.193
  YS02001748           JUNCTION      0.04   568.98     0  01:48      0.0013       0.773      -0.378
  YS02001751           JUNCTION      0.01   570.11     0  01:48    0.000317       0.784       0.083
  YS02001754           JUNCTION      0.26   569.90     0  01:48     0.00749       0.801      -0.181
  YS02001757           JUNCTION      0.00  3338.33     0  01:48           0        10.5       0.019
  YS02001759           JUNCTION    753.67  1369.92     0  01:47        1.13        2.63      -0.017
  YS02001762           JUNCTION      0.00   782.59     0  01:47           0         1.5      -0.000
  YS02001765           JUNCTION      0.00   785.38     0  01:47           0         1.5       0.017
  YS02001767           JUNCTION      0.54   788.29     0  01:47      0.0154         1.5       0.007
  YS02001770           JUNCTION   1030.75  1030.75     0  01:50        1.65        1.69      -0.017
  YS02001774           JUNCTION      0.00   508.06     0  01:46           0       0.225       0.407
  YS02001779           JUNCTION      0.01   514.90     0  01:46    0.000144        0.18      -0.247
  YS02001783           JUNCTION      0.00  1163.91     0  01:49           0        3.92       0.006
  YS02001784           JUNCTION      1.06  1165.39     0  01:49      0.0305        3.95       0.013
  YS02001786           JUNCTION      0.06  1165.31     0  01:49     0.00162        3.95       0.018
  YS02001788           JUNCTION      0.07  1165.34     0  01:49     0.00204        3.95       0.007
  YS02001790           JUNCTION      0.15  1176.54     0  01:49     0.00446        3.96       0.027
  YS02001791           JUNCTION      0.00  1287.47     0  01:50           0        3.96      -0.030
  YS02001793           JUNCTION      0.00  1249.20     0  01:49           0        3.96       0.005
  YS02001882           JUNCTION      0.00    45.46     0  01:45           0      0.0131       5.546
  YS02001884           JUNCTION      0.00    84.79     0  01:44           0      0.0494       5.647
  YS02001887           JUNCTION    796.36   797.55     0  01:49        1.16        1.19       0.378
  YS02001890           JUNCTION      0.00   797.75     0  01:49           0        1.15       0.457
  YS02001895           JUNCTION      0.00   517.68     0  01:53           0        1.06       0.160
  YS02001898           JUNCTION      0.00   517.93     0  01:54           0        1.06       0.006
  YS02001901           JUNCTION      0.00   517.65     0  01:53           0        1.06       0.324
  YS02001904           JUNCTION      0.00   517.79     0  01:53           0        1.07       0.260
  YS02001907           JUNCTION      0.00  1837.98     0  01:50           0        3.37       0.518
  YS02001910           JUNCTION      0.00  1323.12     0  01:50           0         2.3       0.319
  YS02001915           JUNCTION    847.65  1322.26     0  01:50        1.43        2.35       0.064
  YS02001918           JUNCTION      0.00   486.33     0  01:46           0       0.959       0.013
  YS02001920           JUNCTION      2.87   475.50     0  01:50      0.0827        0.94       0.080
  YS02001923           JUNCTION      0.04   509.23     0  01:46     0.00109       0.841      -0.089
  YS02001926           JUNCTION      0.05   784.52     0  01:47      0.0015       0.821      -0.148
  YS02001929           JUNCTION    437.40   659.87     0  01:47       0.802       0.806      -0.087
  YS02006553           JUNCTION      0.00   789.79     0  02:06           0        2.37       0.503
  YS02006556           JUNCTION      0.00   789.68     0  02:06           0        2.38       0.338
  YS02006558           JUNCTION   1029.92  1172.60     0  01:46        1.61        3.95       0.087
  YS02006561           JUNCTION      0.00  1169.85     0  01:46           0        3.92       0.003
  YS02163301           JUNCTION      0.00   933.19     0  01:45           0         3.4       0.039
  YS02163601           JUNCTION      0.11  1410.57     0  01:45     0.00317        4.68       0.100
  YS02164001           JUNCTION      0.00  1408.71     0  01:45           0        4.68       0.043
  CC-1                 OUTFALL       0.00   683.00     0  00:00           0        4.36       0.000
  CC-2                 OUTFALL       0.00   683.00     0  00:00           0        4.17       0.000
  JK-1                 OUTFALL       0.00  1000.00     0  00:00           0        2.15       0.000
  JK-2                 OUTFALL       0.00  1000.00     0  00:00           0      0.0484       0.000
  WSC                  OUTFALL       0.00   753.01     0  02:28           0         9.6       0.000
  CC-storage           STORAGE       0.00  3340.40     0  01:48           0        12.7      -0.209
  JK-storage           STORAGE       0.00  1230.04     0  01:47           0        4.11       0.059
  XR-storage           STORAGE     200.00   200.00     0  00:00        5.76        6.36       0.001
  
  
  **********************
  Node Surcharge Summary
  **********************
  
  Surcharging occurs when water rises above the top of the highest conduit.
  ---------------------------------------------------------------------
                                               Max. Height   Min. Depth
                                   Hours       Above Crown    Below Rim
  Node                 Type      Surcharged         Meters       Meters
  ---------------------------------------------------------------------
  WS02006109           JUNCTION        1.71          0.369        1.451
  WS02006110           JUNCTION        1.13          0.386        1.464
  WS02006112           JUNCTION        1.14          0.089        1.591
  WS02006228           JUNCTION        1.71          0.431        1.769
  WS02006229           JUNCTION        1.71          0.507        1.943
  WS02006230           JUNCTION        1.13          0.459        1.111
  WS02006231           JUNCTION        1.26          0.922        0.608
  WS02006232           JUNCTION        1.72          1.340        0.140
  WS02006234           JUNCTION        1.53          1.240        0.000
  WS02006235           JUNCTION        1.69          1.029        0.261
  WS02006238           JUNCTION        1.71          0.988        0.442
  WS02006239           JUNCTION        1.71          0.882        0.408
  WS02006240           JUNCTION        1.70          0.850        0.540
  WS02006242           JUNCTION        1.70          0.820        0.000
  WS02006243           JUNCTION        1.68          0.704        0.066
  WS02006245           JUNCTION        1.68          0.617        0.233
  WS02006247           JUNCTION        1.67          0.556        0.204
  WS02006248           JUNCTION        1.67          0.380        0.000
  WS02006249           JUNCTION        1.66          0.390        0.000
  WS02006251           JUNCTION        1.29          0.332        0.848
  WS02006252           JUNCTION        1.84          1.100        0.000
  WS02006256           JUNCTION        4.31          2.050        0.000
  YS02001580           JUNCTION        0.63          0.450        0.000
  YS02001583           JUNCTION        0.64          0.500        0.000
  YS02001586           JUNCTION        0.77          0.510        0.000
  YS02001590           JUNCTION        0.85          0.750        0.000
  YS02001593           JUNCTION        0.85          0.743        0.097
  YS02001596           JUNCTION        0.97          0.954        0.116
  YS02001600           JUNCTION        1.13          1.190        0.000
  YS02001601           JUNCTION        1.53          1.440        0.000
  YS02001602           JUNCTION        1.42          1.270        0.000
  YS02001605           JUNCTION        1.35          1.180        0.000
  YS02001607           JUNCTION        0.84          0.680        0.000
  YS02001610           JUNCTION        0.87          0.680        0.000
  YS02001613           JUNCTION        0.84          0.700        0.000
  YS02001616           JUNCTION        0.80          0.610        0.000
  YS02001619           JUNCTION        0.78          0.610        0.000
  YS02001622           JUNCTION        0.78          0.620        0.000
  YS02001625           JUNCTION        0.97          0.780        0.000
  YS02001629           JUNCTION        0.73          0.470        0.000
  YS02001633           JUNCTION        1.00          1.028        0.032
  YS02001641           JUNCTION        0.96          0.972        0.128
  YS02001644           JUNCTION        0.93          0.920        0.000
  YS02001647           JUNCTION        0.72          0.806        0.094
  YS02001649           JUNCTION        0.86          1.050        0.000
  YS02001652           JUNCTION        0.64          0.957        0.173
  YS02001655           JUNCTION        0.44          0.940        0.260
  YS02001658           JUNCTION        0.22          0.924        0.376
  YS02001661           JUNCTION        0.02          0.476        0.914
  YS02001745           JUNCTION        0.01          0.761        0.589
  YS02001748           JUNCTION        0.16          1.013        0.177
  YS02001751           JUNCTION        0.31          1.165        0.035
  YS02001754           JUNCTION        0.54          1.150        0.000
  YS02001757           JUNCTION        0.94          1.210        0.000
  YS02001759           JUNCTION        0.83          1.201        0.009
  YS02001762           JUNCTION        0.80          1.150        0.000
  YS02001765           JUNCTION        0.74          1.100        0.000
  YS02001767           JUNCTION        0.71          1.030        0.000
  YS02001770           JUNCTION        0.67          0.920        0.000
  YS02001774           JUNCTION        0.77          1.050        0.000
  YS02001779           JUNCTION        0.52          0.680        0.000
  YS02001783           JUNCTION        0.51          0.587        1.013
  YS02001784           JUNCTION        0.48          0.414        1.076
  YS02001786           JUNCTION        0.38          0.147        1.283
  YS02001882           JUNCTION        0.45          0.795        0.035
  YS02001884           JUNCTION        0.46          0.804        0.066
  YS02001887           JUNCTION        0.50          0.829        0.121
  YS02001890           JUNCTION        0.51          0.760        0.000
  YS02001895           JUNCTION        0.44          0.620        0.130
  YS02001898           JUNCTION        0.44          0.621        0.119
  YS02001901           JUNCTION        0.48          0.747        0.123
  YS02001904           JUNCTION        0.48          0.676        0.174
  YS02001907           JUNCTION        0.71          0.950        0.000
  YS02001910           JUNCTION        0.54          0.993        0.107
  YS02001915           JUNCTION        0.45          0.953        0.047
  YS02001918           JUNCTION        0.37          0.810        0.000
  YS02001920           JUNCTION        0.38          1.109        0.031
  YS02001923           JUNCTION        0.05          0.820        0.000
  YS02001926           JUNCTION        0.09          0.900        0.000
  YS02001929           JUNCTION        0.01          0.780        0.000
  YS02006553           JUNCTION        0.73          1.008        0.182
  YS02006556           JUNCTION        0.62          0.982        0.368
  YS02006558           JUNCTION        0.62          0.976        0.424
  YS02006561           JUNCTION        0.34          0.353        0.797
  YS02163301           JUNCTION        0.99          0.942        0.088
  YS02163601           JUNCTION        1.04          1.080        0.000
  YS02164001           JUNCTION        0.96          1.008        0.092
  
  
  *********************
  Node Flooding Summary
  *********************
  
  Flooding refers to all water that overflows a node, whether it ponds or not.
  --------------------------------------------------------------------------
                                                             Total   Maximum
                                 Maximum   Time of Max       Flood    Ponded
                        Hours       Rate    Occurrence      Volume     Depth
  Node                 Flooded       LPS   days hr:min    10^6 ltr    Meters
  --------------------------------------------------------------------------
  WS02006234              0.01      5.57      0  03:14       0.000     0.000
  WS02006242              0.01      4.65      0  02:55       0.000     0.000
  WS02006248              0.01     21.38      0  02:55       0.000     0.000
  WS02006249              1.27    112.67      0  03:14       0.313     0.000
  WS02006252              0.01    245.63      0  00:00       0.000     0.000
  WS02006256              1.61    293.19      0  00:00       0.553     0.000
  YS02001580              0.01    105.46      0  01:44       0.000     0.000
  YS02001583              0.01    167.33      0  01:43       0.000     0.000
  YS02001586              0.51    414.50      0  01:52       0.371     0.000
  YS02001590              0.01     48.85      0  01:41       0.000     0.000
  YS02001600              0.01      0.89      0  01:44       0.000     0.000
  YS02001601              0.69   1190.15      0  01:51       1.321     0.000
  YS02001602              0.60     62.01      0  02:04       0.120     0.000
  YS02001605              0.01      3.90      0  01:43       0.000     0.000
  YS02001607              0.01      6.07      0  01:43       0.000     0.000
  YS02001610              0.52    689.00      0  01:52       0.655     0.000
  YS02001613              0.01     14.80      0  01:43       0.000     0.000
  YS02001616              0.01     25.58      0  01:43       0.000     0.000
  YS02001619              0.01     37.47      0  01:43       0.000     0.000
  YS02001622              0.01    169.50      0  01:43       0.000     0.000
  YS02001625              0.50   1294.49      0  01:53       1.113     0.000
  YS02001629              0.11    289.06      0  01:49       0.062     0.000
  YS02001644              0.18    909.52      0  01:49       0.360     0.000
  YS02001649              0.01    123.15      0  01:47       0.001     0.000
  YS02001754              0.01     38.14      0  01:47       0.000     0.000
  YS02001757              0.01     12.25      0  01:47       0.000     0.000
  YS02001762              0.01     41.58      0  01:46       0.000     0.000
  YS02001765              0.01     25.69      0  01:46       0.000     0.000
  YS02001767              0.01     81.41      0  01:46       0.000     0.000
  YS02001770              0.01    175.21      0  01:46       0.001     0.000
  YS02001774              0.01     59.88      0  01:46       0.000     0.000
  YS02001779              0.16    457.08      0  01:50       0.160     0.000
  YS02001890              0.15    284.68      0  01:49       0.083     0.000
  YS02001907              0.31   1695.87      0  01:50       0.994     0.000
  YS02001918              0.01    218.13      0  01:47       0.003     0.000
  YS02001923              0.01    248.26      0  01:47       0.001     0.000
  YS02001926              0.01    583.21      0  01:47       0.004     0.000
  YS02001929              0.01    257.67      0  01:47       0.001     0.000
  YS02163601              0.01      3.76      0  02:14       0.000     0.000
  
  
  **********************
  Storage Volume Summary
  **********************
  
  ------------------------------------------------------------------------------------------------
                         Average    Avg   Evap  Exfil     Maximum    Max    Time of Max    Maximum
                          Volume   Pcnt   Pcnt   Pcnt      Volume   Pcnt     Occurrence    Outflow
  Storage Unit           1000 m³   Full   Loss   Loss     1000 m³   Full    days hr:min        LPS
  ------------------------------------------------------------------------------------------------
  CC-storage               2.484   38.7    0.0    0.0       4.778   74.5       0  02:20    1783.53
  JK-storage               0.153   52.4    0.0    0.0       0.213   73.0       0  01:48    2300.00
  XR-storage               0.939   65.2    0.0    0.0       1.111   77.2       0  08:00     380.00
  
  
  ***********************
  Outfall Loading Summary
  ***********************
  
  -----------------------------------------------------------
                         Flow       Avg       Max       Total
                         Freq      Flow      Flow      Volume
  Outfall Node           Pcnt       LPS       LPS    10^6 ltr
  -----------------------------------------------------------
  CC-1                  37.41    683.00    683.00       4.357
  CC-2                  35.49    683.00    683.00       4.174
  JK-1                  16.82   1000.00   1000.00       2.148
  JK-2                   0.25   1000.00   1000.00       0.048
  WSC                   99.93    405.56    753.01       9.598
  -----------------------------------------------------------
  System                37.98   3771.56   3366.23      20.325
  
  
  ********************
  Link Flow Summary
  ********************
  
  -----------------------------------------------------------------------------
                                 Maximum  Time of Max   Maximum    Max/    Max/
                                  |Flow|   Occurrence   |Veloc|    Full    Full
  Link                 Type          LPS  days hr:min     m/sec    Flow   Depth
  -----------------------------------------------------------------------------
  1                    CONDUIT    753.01     0  02:28      3.08    0.26    0.35
  WS02001211WS02001212 CONDUIT    203.15     0  03:40      0.54    0.16    0.51
  WS02001212WS02001213 CONDUIT    205.42     0  03:40      1.04    0.32    0.36
  WS02001213WS02003059 CONDUIT    210.89     0  03:41      0.47    0.35    0.67
  WS02003059WS02003060 CONDUIT    218.57     0  03:42      0.67    0.14    0.59
  WS02003060WS02003069 CONDUIT    751.23     0  02:38      1.77    0.29    0.40
  WS02003066WSF200     CONDUIT    537.22     0  02:26      2.74    0.09    0.23
  WS02003067WS02003066 CONDUIT    537.18     0  02:25      1.21    0.17    0.42
  WS02003069WS02003072 CONDUIT    751.33     0  02:27      1.51    0.36    0.45
  WS02003072WS02003073 CONDUIT    751.26     0  02:27      1.60    1.62    0.43
  WS02004138WS02004139 CONDUIT    190.84     0  00:29      2.17    0.04    0.33
  WS02004139WS02001211 CONDUIT    193.17     0  02:48      0.54    0.24    0.47
  WS02004401WS02004402 CONDUIT    539.78     0  02:32      0.97    0.65    0.86
  WS02004402WS02004403 CONDUIT    539.36     0  02:33      0.97    0.77    0.88
  WS02004403WS02004404 CONDUIT    538.92     0  02:33      0.92    0.39    0.93
  WS02004404WS02004405 CONDUIT    538.86     0  02:33      1.08    5.28    0.96
  WS02004405WS02004406 CONDUIT    539.06     0  02:33      0.99    1.06    0.96
  WS02004406WS02004407 CONDUIT    538.38     0  02:33      1.04    0.24    0.63
  WS02004407WS02004409 CONDUIT    537.96     0  02:33      1.57    0.19    0.48
  WS02004409WS02004410 CONDUIT    537.66     0  02:24      1.05    0.70    0.67
  WS02004410WS02004411 CONDUIT    537.52     0  02:24      1.00    0.73    0.69
  WS02004411WS02004412 CONDUIT    537.36     0  02:25      0.92    0.76    0.69
  WS02004412WS02004413 CONDUIT    537.36     0  02:25      0.82    0.36    0.78
  WS02004413WS02003067 CONDUIT    537.14     0  02:25      1.11    0.23    0.59
  WS02006109WS02006110 CONDUIT    593.10     0  03:14      1.18    1.14    1.00
  WS02006110WS02006113 CONDUIT    596.59     0  03:14      1.43    0.54    0.79
  WS02006111WS02006112 CONDUIT    552.40     0  03:14      1.82    0.26    0.67
  WS02006112WS02006115 CONDUIT    570.06     0  03:14      0.88    0.34    0.87
  WS02006113WS02006111 CONDUIT    572.21     0  03:14      2.49    0.69    0.47
  WS02006115WS02006116 CONDUIT    552.35     0  03:15      1.10    0.71    0.76
  WS02006116WS02004401 CONDUIT    545.39     0  03:15      0.98    0.75    0.84
  WS02006228WS02006109 CONDUIT    589.48     0  03:14      1.17    2.58    1.00
  WS02006229WS02006228 CONDUIT    583.46     0  03:14      1.16    1.93    1.00
  WS02006230WS02006229 CONDUIT    581.17     0  03:14      1.51   12.93    1.00
  WS02006231WS02006230 CONDUIT    580.73     0  03:07      1.57    8.81    1.00
  WS02006232WS02006231 CONDUIT    578.74     0  03:01      1.50    1.21    1.00
  WS02006234WS02006232 CONDUIT    578.03     0  03:01      1.50    1.17    1.00
  WS02006235WS02006234 CONDUIT    573.77     0  03:01      1.49    6.05    1.00
  WS02006238WS02006235 CONDUIT    424.35     0  02:40      1.56    0.95    1.00
  WS02006239WS02006238 CONDUIT    424.66     0  02:40      1.11    1.36    1.00
  WS02006240WS02006239 CONDUIT    422.92     0  02:40      1.24    1.33    1.00
  WS02006242WS02006240 CONDUIT    419.91     0  02:40      1.12    1.67    1.00
  WS02006243WS02006242 CONDUIT    419.68     0  02:40      1.39    0.90    1.00
  WS02006245WS02006243 CONDUIT    419.51     0  03:15      1.45    1.24    1.00
  WS02006247WS02006245 CONDUIT    419.18     0  02:40      1.44    3.32    1.00
  WS02006248WS02006247 CONDUIT    419.61     0  02:40      1.45    0.91    1.00
  WS02006249WS02006248 CONDUIT    421.03     0  02:40      1.37    2.31    1.00
  WS02006251WS02006249 CONDUIT    458.97     0  00:00      1.99    1.32    1.00
  WS02006252WS02006251 CONDUIT    406.64     0  01:48     25.11    1.49    1.00
  WS02006256WS02006235 CONDUIT    289.21     0  01:40      4.23    3.06    1.00
  WSF200WS02003060     CONDUIT    537.66     0  02:37      1.76    0.12    0.32
  YS02001580YS02001583 CONDUIT    119.63     0  01:43      0.75    0.46    1.00
  YS02001583YS02001586 CONDUIT    177.10     0  01:43      0.76    0.27    1.00
  YS02001586YS02001590 CONDUIT    318.47     0  02:04      1.27    0.56    1.00
  YS02001590YS02001593 CONDUIT    318.06     0  01:48      1.12    2.00    1.00
  YS02001593YS02001596 CONDUIT    318.20     0  02:01      1.74    0.50    1.00
  YS02001596YS02001600 CONDUIT    318.10     0  01:56      1.22    0.62    1.00
  YS02001600YS02001601 CONDUIT    318.70     0  01:56      1.13    0.55    1.00
  YS02001601YS02001602 CONDUIT    531.32     0  01:43      1.88    1.92    1.00
  YS02001602YS02001605 CONDUIT    531.29     0  01:43      1.88   11.24    1.00
  YS02001605YS02001607 CONDUIT    531.12     0  01:43      1.88    2.91    1.00
  YS02001607YS02001610 CONDUIT    541.17     0  01:43      0.69    0.51    1.00
  YS02001610YS02001613 CONDUIT    547.87     0  01:43      0.70    0.63    1.00
  YS02001613YS02001616 CONDUIT    553.75     0  01:43      0.71    0.47    1.00
  YS02001616YS02001619 CONDUIT    507.82     0  01:43      0.67    0.88    1.00
  YS02001619YS02001622 CONDUIT    948.10     0  01:49      1.21    1.40    1.00
  YS02001622YS02001625 CONDUIT    948.92     0  01:49      1.21    0.51    1.00
  YS02001625YS02001629 CONDUIT    943.81     0  01:43      1.21    0.45    1.00
  YS02001629YS02163301 CONDUIT    933.19     0  01:45      1.19    1.15    1.00
  YS02001633YS02163601 CONDUIT   1410.46     0  01:45      1.80    1.48    1.00
  YS02001641YS02001644 CONDUIT   1403.91     0  01:45      1.79    4.54    1.00
  YS02001644YS02001647 CONDUIT   1822.94     0  01:45      2.35    1.07    1.00
  YS02001647YS02001649 CONDUIT   1830.19     0  01:45      2.36    0.97    1.00
  YS02001649YS02001757 CONDUIT   2027.33     0  01:45      2.58    1.23    1.00
  YS02001652YS02001649 CONDUIT    970.90     0  01:48      1.24    0.48    1.00
  YS02001655YS02001652 CONDUIT    969.19     0  01:48      1.38    0.47    1.00
  YS02001658YS02001655 CONDUIT    968.20     0  01:48      1.95    0.41    1.00
  YS02001661YS02001658 CONDUIT    966.96     0  01:48      2.36    0.38    1.00
  YS02001664YS02001661 CONDUIT    963.44     0  01:48      2.39    0.30    0.99
  YS02001745YS02001748 CONDUIT    568.94     0  01:48      2.20    0.22    1.00
  YS02001748YS02001751 CONDUIT    570.10     0  01:48      1.72    0.29    1.00
  YS02001751YS02001754 CONDUIT    569.64     0  01:48      1.47    0.27    1.00
  YS02001754YS02001757 CONDUIT    570.75     0  01:48      0.73    0.23    1.00
  YS02001757CaochengTiaoxuchi CONDUIT   3340.40     0  01:48      4.25    1.45    1.00
  YS02001759YS02001757 CONDUIT   1367.82     0  01:47      1.74    0.97    1.00
  YS02001762YS02001759 CONDUIT    780.96     0  01:47      0.99    0.90    1.00
  YS02001765YS02001762 CONDUIT    782.59     0  01:47      1.00    0.73    1.00
  YS02001767YS02001765 CONDUIT    785.38     0  01:47      1.00    0.99    1.00
  YS02001770YS02001767 CONDUIT    787.76     0  01:47      1.00    3.12    1.00
  YS02001774YS02001770 CONDUIT    508.06     0  01:46      0.65    0.32    1.00
  YS02001779YS02001774 CONDUIT    514.89     0  01:46      0.67    0.26    1.00
  YS02001783YS02001784 CONDUIT   1164.33     0  01:49      2.32    1.61    1.00
  YS02001784YS02001785 CONDUIT   1165.26     0  01:49      2.32    2.71    1.00
  YS02001786YS02001788 CONDUIT   1165.26     0  01:49      2.48    2.25    0.89
  YS02001788YS02001790 CONDUIT   1176.39     0  01:49      2.72    0.87    0.84
  YS02001790YS02001791 CONDUIT   1287.47     0  01:50      3.43    1.40    0.70
  YS02001791YS02001793 CONDUIT   1249.20     0  01:49      6.74    0.54    0.45
  YS02001793JiankangQianchi CONDUIT   1230.04     0  01:47      2.47    0.10    0.65
  YS02001882YS02001884 CONDUIT     45.46     0  01:45      0.16    0.05    1.00
  YS02001884YS02001887 CONDUIT     84.79     0  01:44      0.11    0.11    1.00
  YS02001887YS02001890 CONDUIT    797.75     0  01:49      1.02    1.37    1.00
  YS02001890YS02001895 CONDUIT    517.68     0  01:53      0.66    0.24    1.00
  YS02001895YS02001898 CONDUIT    517.93     0  01:54      0.66    0.90    1.00
  YS02001898YS02001901 CONDUIT    517.65     0  01:53      0.66    0.33    1.00
  YS02001901YS02001904 CONDUIT    517.79     0  01:53      0.66    0.80    1.00
  YS02001904YS02001907 CONDUIT    517.93     0  01:53      0.66    0.18    1.00
  YS02001907YS02006553 CONDUIT    789.79     0  02:06      0.88    0.93    1.00
  YS02001910YS02001907 CONDUIT   1322.61     0  01:50      1.68    0.75    1.00
  YS02001915YS02001910 CONDUIT   1323.12     0  01:50      1.68    0.66    1.00
  YS02001918YS02001915 CONDUIT    486.33     0  01:46      0.62    0.27    1.00
  YS02001920YS02001918 CONDUIT    475.81     0  01:50      0.65    0.46    1.00
  YS02001923YS02001920 CONDUIT    472.63     0  01:50      0.72    0.21    1.00
  YS02001926YS02001923 CONDUIT    508.37     0  01:46      1.00    0.73    1.00
  YS02001929YS02001926 CONDUIT    471.10     0  01:50      1.19    0.22    1.00
  YS02006553YS02006556 CONDUIT    789.68     0  02:06      1.01    0.68    1.00
  YS02006556YS02006558 CONDUIT    791.32     0  02:06      1.01    0.62    1.00
  YS02006558YS02006561 CONDUIT   1169.85     0  01:46      4.14    2.59    1.00
  YS02006561YS02001783 CONDUIT   1163.91     0  01:49      2.32    0.60    1.00
  YS02163301YS02001633 CONDUIT    932.52     0  01:45      1.19    0.88    1.00
  YS02163601YS02164001 CONDUIT   1408.71     0  01:45      1.79    1.25    1.00
  YS02164001YS02001641 CONDUIT   1405.31     0  01:45      1.79    1.92    1.00
  CC-R1                PUMP       683.00     0  00:00              1.00
  CC-R2                PUMP       683.00     0  00:00              1.00
  CC-S1                PUMP       200.00     0  00:00              1.00
  CC-S2                PUMP       200.00     0  00:00              1.00
  JK-R1                PUMP      1000.00     0  00:00              1.00
  JK-R2                PUMP      1000.00     0  00:00              1.00
  JK-S                 PUMP       300.00     0  00:00              1.00
  XR-1                 PUMP        95.00     0  00:00              1.00
  XR-2                 PUMP        95.00     0  00:00              1.00
  XR-3                 PUMP        95.00     0  00:00              1.00
  XR-4                 PUMP        95.00     0  00:00              1.00
  
  
  ***************************
  Flow Classification Summary
  ***************************
  
  -------------------------------------------------------------------------------------
                      Adjusted    ---------- Fraction of Time in Flow Class ---------- 
                       /Actual         Up    Down  Sub   Sup   Up    Down  Norm  Inlet 
  Conduit               Length    Dry  Dry   Dry   Crit  Crit  Crit  Crit  Ltd   Ctrl  
  -------------------------------------------------------------------------------------
  1                       1.00   0.00  0.00  0.00  0.00  1.00  0.00  0.00  0.17  0.00
  WS02001211WS02001212    1.00   0.00  0.02  0.00  0.98  0.00  0.00  0.00  0.00  0.00
  WS02001212WS02001213    1.00   0.02  0.00  0.00  0.23  0.00  0.75  0.00  0.00  0.00
  WS02001213WS02003059    1.00   0.00  0.01  0.00  0.99  0.00  0.00  0.00  0.00  0.00
  WS02003059WS02003060    1.00   0.00  0.00  0.00  1.00  0.00  0.00  0.00  0.03  0.00
  WS02003060WS02003069    1.00   0.00  0.00  0.00  0.98  0.02  0.00  0.00  0.66  0.00
  WS02003066WSF200        1.00   0.13  0.00  0.00  0.00  0.87  0.00  0.00  0.71  0.00
  WS02003067WS02003066    1.00   0.10  0.02  0.00  0.88  0.00  0.00  0.00  0.00  0.00
  WS02003069WS02003072    1.00   0.00  0.00  0.00  1.00  0.00  0.00  0.00  0.75  0.00
  WS02003072WS02003073    1.00   0.00  0.00  0.00  0.00  0.00  0.00  1.00  0.00  0.00
  WS02004138WS02004139    1.00   0.00  0.00  0.00  0.97  0.01  0.00  0.02  0.98  0.00
  WS02004139WS02001211    1.00   0.00  0.00  0.00  0.99  0.00  0.00  0.00  0.00  0.00
  WS02004401WS02004402    1.00   0.02  0.00  0.00  0.98  0.00  0.00  0.00  0.00  0.00
  WS02004402WS02004403    1.00   0.02  0.00  0.00  0.97  0.00  0.00  0.00  0.00  0.00
  WS02004403WS02004404    1.00   0.00  0.03  0.00  0.97  0.00  0.00  0.00  0.00  0.00
  WS02004404WS02004405    1.00   0.00  0.00  0.00  1.00  0.00  0.00  0.00  0.00  0.00
  WS02004405WS02004406    1.00   0.00  0.00  0.00  1.00  0.00  0.00  0.00  0.00  0.00
  WS02004406WS02004407    1.00   0.00  0.05  0.00  0.95  0.00  0.00  0.00  0.00  0.00
  WS02004407WS02004409    1.00   0.05  0.00  0.00  0.94  0.01  0.00  0.00  0.94  0.00
  WS02004409WS02004410    1.00   0.05  0.00  0.00  0.95  0.00  0.00  0.00  0.03  0.00
  WS02004410WS02004411    1.00   0.05  0.00  0.00  0.95  0.00  0.00  0.00  0.01  0.00
  WS02004411WS02004412    1.00   0.05  0.00  0.00  0.95  0.00  0.00  0.00  0.00  0.00
  WS02004412WS02004413    1.00   0.05  0.00  0.00  0.94  0.00  0.00  0.00  0.01  0.00
  WS02004413WS02003067    1.00   0.06  0.04  0.00  0.00  0.00  0.90  0.00  0.00  0.00
  WS02006109WS02006110    1.00   0.00  0.01  0.00  0.98  0.00  0.01  0.00  0.00  0.00
  WS02006110WS02006113    1.00   0.01  0.01  0.00  0.98  0.00  0.00  0.00  0.00  0.00
  WS02006111WS02006112    1.00   0.02  0.00  0.00  0.98  0.00  0.00  0.00  0.98  0.00
  WS02006112WS02006115    1.00   0.02  0.00  0.00  0.97  0.00  0.00  0.00  0.00  0.00
  WS02006113WS02006111    1.00   0.02  0.00  0.00  0.00  0.98  0.00  0.00  0.09  0.00
  WS02006115WS02006116    1.00   0.02  0.00  0.00  0.97  0.00  0.00  0.01  0.00  0.00
  WS02006116WS02004401    1.00   0.02  0.00  0.00  0.98  0.00  0.00  0.00  0.00  0.00
  WS02006228WS02006109    1.00   0.00  0.00  0.00  1.00  0.00  0.00  0.00  0.00  0.00
  WS02006229WS02006228    1.00   0.00  0.00  0.00  0.99  0.00  0.00  0.01  0.00  0.00
  WS02006230WS02006229    1.00   0.00  0.00  0.00  0.99  0.00  0.00  0.01  0.00  0.00
  WS02006231WS02006230    1.00   0.00  0.00  0.00  0.22  0.00  0.78  0.00  0.00  0.00
  WS02006232WS02006231    1.00   0.00  0.00  0.00  0.99  0.00  0.01  0.00  0.00  0.00
  WS02006234WS02006232    1.00   0.00  0.00  0.00  1.00  0.00  0.00  0.00  0.32  0.00
  WS02006235WS02006234    1.00   0.00  0.00  0.00  0.62  0.00  0.38  0.00  0.00  0.00
  WS02006238WS02006235    1.00   0.00  0.00  0.00  1.00  0.00  0.00  0.00  0.00  0.00
  WS02006239WS02006238    1.00   0.00  0.00  0.00  1.00  0.00  0.00  0.00  0.47  0.00
  WS02006240WS02006239    1.00   0.00  0.00  0.00  0.46  0.00  0.00  0.53  0.02  0.00
  WS02006242WS02006240    1.00   0.00  0.00  0.00  1.00  0.00  0.00  0.00  0.00  0.00
  WS02006243WS02006242    1.00   0.00  0.00  0.00  0.99  0.00  0.00  0.01  0.71  0.00
  WS02006245WS02006243    1.00   0.00  0.00  0.00  0.51  0.00  0.00  0.49  0.01  0.00
  WS02006247WS02006245    1.00   0.00  0.00  0.00  0.99  0.00  0.00  0.01  0.00  0.00
  WS02006248WS02006247    1.00   0.00  0.00  0.00  0.99  0.00  0.00  0.01  0.26  0.00
  WS02006249WS02006248    1.00   0.00  0.00  0.00  0.32  0.00  0.68  0.00  0.00  0.00
  WS02006251WS02006249    1.00   0.00  0.00  0.00  0.99  0.01  0.00  0.00  0.71  0.00
  WS02006252WS02006251    1.00   0.00  0.70  0.00  0.16  0.00  0.14  0.00  0.00  0.00
  WS02006256WS02006235    1.00   0.00  0.00  0.00  0.99  0.01  0.00  0.00  0.00  0.00
  WSF200WS02003060        1.00   0.00  0.13  0.00  0.66  0.21  0.00  0.00  0.65  0.00
  YS02001580YS02001583    1.00   0.21  0.59  0.00  0.20  0.00  0.00  0.00  0.68  0.00
  YS02001583YS02001586    1.00   0.48  0.26  0.00  0.25  0.00  0.00  0.00  0.68  0.00
  YS02001586YS02001590    1.00   0.13  0.00  0.00  0.40  0.04  0.00  0.44  0.32  0.00
  YS02001590YS02001593    1.00   0.13  0.01  0.00  0.12  0.00  0.75  0.00  0.00  0.00
  YS02001593YS02001596    1.00   0.13  0.00  0.00  0.14  0.01  0.00  0.72  0.02  0.00
  YS02001596YS02001600    1.00   0.13  0.00  0.00  0.21  0.01  0.00  0.65  0.05  0.00
  YS02001600YS02001601    1.00   0.13  0.01  0.00  0.86  0.00  0.00  0.00  0.61  0.00
  YS02001601YS02001602    1.00   0.13  0.01  0.00  0.87  0.00  0.00  0.00  0.00  0.00
  YS02001602YS02001605    1.00   0.13  0.00  0.00  0.87  0.00  0.00  0.00  0.00  0.00
  YS02001605YS02001607    1.00   0.13  0.00  0.00  0.87  0.00  0.00  0.00  0.00  0.00
  YS02001607YS02001610    1.00   0.13  0.01  0.00  0.86  0.00  0.00  0.00  0.01  0.00
  YS02001610YS02001613    1.00   0.13  0.00  0.00  0.87  0.00  0.00  0.00  0.00  0.00
  YS02001613YS02001616    1.00   0.13  0.00  0.00  0.87  0.00  0.00  0.00  0.00  0.00
  YS02001616YS02001619    1.00   0.13  0.00  0.00  0.87  0.00  0.00  0.00  0.00  0.00
  YS02001619YS02001622    1.00   0.13  0.00  0.00  0.87  0.00  0.00  0.00  0.34  0.00
  YS02001622YS02001625    1.00   0.13  0.00  0.00  0.87  0.00  0.00  0.00  0.03  0.00
  YS02001625YS02001629    1.00   0.13  0.04  0.00  0.17  0.00  0.66  0.00  0.00  0.00
  YS02001629YS02163301    1.00   0.15  0.01  0.00  0.84  0.00  0.00  0.00  0.00  0.00
  YS02001633YS02163601    1.00   0.00  0.01  0.00  0.99  0.00  0.00  0.00  0.14  0.00
  YS02001641YS02001644    1.00   0.00  0.01  0.00  0.99  0.00  0.00  0.00  0.00  0.00
  YS02001644YS02001647    1.00   0.00  0.16  0.00  0.84  0.00  0.00  0.00  0.00  0.00
  YS02001647YS02001649    1.00   0.00  0.16  0.00  0.59  0.25  0.00  0.00  0.58  0.00
  YS02001649YS02001757    1.00   0.00  0.00  0.00  0.72  0.28  0.00  0.00  0.52  0.00
  YS02001652YS02001649    1.00   0.00  0.00  0.00  0.97  0.03  0.00  0.00  0.74  0.00
  YS02001655YS02001652    1.00   0.00  0.00  0.00  0.19  0.01  0.00  0.80  0.04  0.00
  YS02001658YS02001655    1.00   0.00  0.14  0.00  0.69  0.17  0.00  0.00  0.67  0.00
  YS02001661YS02001658    1.00   0.14  0.00  0.00  0.55  0.31  0.00  0.00  0.70  0.00
  YS02001664YS02001661    1.00   0.13  0.00  0.00  0.76  0.11  0.00  0.00  0.85  0.00
  YS02001745YS02001748    1.00   0.00  0.00  0.00  0.11  0.01  0.00  0.88  0.05  0.00
  YS02001748YS02001751    1.00   0.00  0.00  0.00  0.85  0.15  0.00  0.00  0.77  0.00
  YS02001751YS02001754    1.00   0.00  0.00  0.00  0.17  0.00  0.00  0.83  0.02  0.00
  YS02001754YS02001757    1.00   0.00  0.00  0.00  1.00  0.00  0.00  0.00  0.82  0.00
  YS02001757CaochengTiaoxuchi    1.00   0.00  0.00  0.00  1.00  0.00  0.00  0.00  0.81  0.00
  YS02001759YS02001757    1.00   0.00  0.00  0.00  0.99  0.01  0.00  0.00  0.62  0.00
  YS02001762YS02001759    1.00   0.00  0.00  0.00  1.00  0.00  0.00  0.00  0.03  0.00
  YS02001765YS02001762    1.00   0.00  0.00  0.00  1.00  0.00  0.00  0.00  0.73  0.00
  YS02001767YS02001765    1.00   0.00  0.00  0.00  1.00  0.00  0.00  0.00  0.00  0.00
  YS02001770YS02001767    1.00   0.00  0.00  0.00  1.00  0.00  0.00  0.00  0.00  0.00
  YS02001774YS02001770    1.00   0.00  0.13  0.00  0.61  0.00  0.26  0.00  0.02  0.00
  YS02001779YS02001774    1.00   0.00  0.00  0.00  1.00  0.00  0.00  0.00  0.78  0.00
  YS02001783YS02001784    1.00   0.00  0.17  0.00  0.83  0.00  0.00  0.00  0.57  0.00
  YS02001784YS02001785    1.00   0.00  0.00  0.00  1.00  0.00  0.00  0.00  0.16  0.00
  YS02001786YS02001788    1.00   0.00  0.00  0.00  0.79  0.21  0.00  0.00  0.00  0.00
  YS02001788YS02001790    1.00   0.00  0.00  0.00  0.20  0.80  0.00  0.00  0.80  0.00
  YS02001790YS02001791    1.00   0.00  0.00  0.00  0.01  0.99  0.00  0.00  0.17  0.00
  YS02001791YS02001793    1.00   0.00  0.00  0.00  0.00  1.00  0.00  0.00  0.01  0.00
  YS02001793JiankangQianchi    1.00   0.00  0.00  0.00  0.99  0.01  0.00  0.00  0.95  0.00
  YS02001882YS02001884    1.00   0.15  0.01  0.00  0.85  0.00  0.00  0.00  0.00  0.00
  YS02001884YS02001887    1.00   0.06  0.05  0.00  0.89  0.00  0.00  0.00  0.00  0.00
  YS02001887YS02001890    1.00   0.00  0.00  0.00  0.97  0.00  0.03  0.00  0.00  0.00
  YS02001890YS02001895    1.00   0.00  0.15  0.00  0.84  0.00  0.00  0.00  0.00  0.00
  YS02001895YS02001898    1.00   0.16  0.00  0.00  0.83  0.00  0.02  0.00  0.00  0.00
  YS02001898YS02001901    1.00   0.16  0.00  0.00  0.84  0.00  0.00  0.00  0.01  0.00
  YS02001901YS02001904    1.00   0.16  0.00  0.00  0.84  0.00  0.00  0.00  0.00  0.00
  YS02001904YS02001907    1.00   0.00  0.16  0.00  0.84  0.00  0.00  0.00  0.00  0.00
  YS02001907YS02006553    1.00   0.00  0.02  0.00  0.98  0.00  0.00  0.00  0.00  0.00
  YS02001910YS02001907    1.00   0.00  0.00  0.00  0.97  0.00  0.00  0.03  0.12  0.00
  YS02001915YS02001910    1.00   0.00  0.00  0.00  0.97  0.03  0.00  0.00  0.14  0.00
  YS02001918YS02001915    1.00   0.00  0.01  0.00  0.98  0.02  0.00  0.00  0.75  0.00
  YS02001920YS02001918    1.00   0.00  0.01  0.00  0.99  0.00  0.00  0.00  0.00  0.00
  YS02001923YS02001920    1.00   0.00  0.00  0.00  1.00  0.00  0.00  0.00  0.93  0.00
  YS02001926YS02001923    1.00   0.00  0.07  0.00  0.06  0.00  0.87  0.00  0.00  0.00
  YS02001929YS02001926    1.00   0.00  0.13  0.00  0.87  0.00  0.00  0.00  0.82  0.00
  YS02006553YS02006556    1.00   0.01  0.00  0.00  0.99  0.00  0.00  0.00  0.03  0.00
  YS02006556YS02006558    1.00   0.00  0.00  0.00  1.00  0.00  0.00  0.00  0.00  0.00
  YS02006558YS02006561    1.00   0.17  0.00  0.00  0.05  0.78  0.00  0.00  0.18  0.00
  YS02006561YS02001783    1.00   0.17  0.00  0.00  0.08  0.75  0.00  0.00  0.70  0.00
  YS02163301YS02001633    1.00   0.00  0.15  0.00  0.85  0.00  0.00  0.00  0.00  0.00
  YS02163601YS02164001    1.00   0.00  0.08  0.00  0.92  0.00  0.00  0.00  0.00  0.00
  YS02164001YS02001641    1.00   0.01  0.07  0.00  0.92  0.00  0.00  0.00  0.05  0.00
  
  
  *************************
  Conduit Surcharge Summary
  *************************
  
  ----------------------------------------------------------------------------
                                                           Hours        Hours 
                         --------- Hours Full --------   Above Full   Capacity
  Conduit                Both Ends  Upstream  Dnstream   Normal Flow   Limited
  ----------------------------------------------------------------------------
  WS02003072WS02003073        0.01      0.01      0.01      1.82         0.01
  WS02004404WS02004405        0.01      0.01      0.01      2.04         0.01
  WS02004405WS02004406        0.01      0.01      0.01      1.05         0.01
  WS02006109WS02006110        1.13      1.13      1.72      1.22         0.01
  WS02006110WS02006113        0.01      0.01      1.72      0.01         0.01
  WS02006111WS02006112        0.01      0.01      1.79      0.01         0.01
  WS02006112WS02006115        0.01      0.01      1.14      0.01         0.01
  WS02006228WS02006109        1.71      1.72      1.71      1.84         1.71
  WS02006229WS02006228        1.71      1.71      1.71      1.77         1.70
  WS02006230WS02006229        1.73      1.75      1.73      2.74         1.73
  WS02006231WS02006230        1.13      1.13      1.29      2.37         0.01
  WS02006232WS02006231        1.26      1.26      1.72      1.30         0.01
  WS02006234WS02006232        1.68      1.68      1.72      1.28         1.26
  WS02006235WS02006234        1.52      1.52      1.69      2.20         0.01
  WS02006238WS02006235        1.70      1.70      1.72      0.01         0.01
  WS02006239WS02006238        1.71      1.72      1.71      1.67         1.46
  WS02006240WS02006239        1.70      1.70      1.71      1.67         1.36
  WS02006242WS02006240        1.70      1.70      1.72      1.74         0.01
  WS02006243WS02006242        1.69      1.69      1.70      0.01         0.03
  WS02006245WS02006243        1.68      1.68      1.68      0.53         0.68
  WS02006247WS02006245        1.68      1.68      1.68      1.90         1.67
  WS02006248WS02006247        1.67      1.67      1.67      0.01         0.03
  WS02006249WS02006248        1.66      1.67      1.66      1.88         0.01
  WS02006251WS02006249        1.66      1.66      1.66      1.76         1.61
  WS02006252WS02006251        1.84      1.84      1.84      1.84         0.01
  WS02006256WS02006235        2.24      2.27      4.28      1.62         0.01
  YS02001580YS02001583        0.63      0.63      0.68      0.01         0.01
  YS02001583YS02001586        0.64      0.64      0.77      0.01         0.01
  YS02001586YS02001590        0.78      0.78      0.85      0.01         0.01
  YS02001590YS02001593        0.85      0.85      0.87      0.91         0.01
  YS02001593YS02001596        0.87      0.87      0.97      0.01         0.01
  YS02001596YS02001600        1.02      1.02      1.13      0.01         0.01
  YS02001600YS02001601        1.20      1.20      1.53      0.01         0.01
  YS02001601YS02001602        1.42      1.42      1.57      1.13         0.01
  YS02001602YS02001605        1.35      1.35      1.42      2.21         0.01
  YS02001605YS02001607        1.30      1.35      1.30      1.51         1.30
  YS02001607YS02001610        0.84      0.84      0.87      0.01         0.01
  YS02001610YS02001613        0.84      0.84      0.87      0.01         0.01
  YS02001613YS02001616        0.80      0.80      0.84      0.01         0.01
  YS02001616YS02001619        0.78      0.78      0.80      0.01         0.01
  YS02001619YS02001622        0.78      0.78      0.78      0.83         0.72
  YS02001622YS02001625        0.78      0.78      0.97      0.01         0.01
  YS02001625YS02001629        0.73      0.73      0.97      0.01         0.01
  YS02001629YS02163301        0.97      0.97      0.99      0.04         0.13
  YS02001633YS02163601        1.00      1.00      1.04      0.33         0.30
  YS02001641YS02001644        0.93      0.96      0.93      1.59         0.92
  YS02001644YS02001647        0.72      0.72      0.93      0.04         0.01
  YS02001647YS02001649        0.72      0.72      0.86      0.01         0.01
  YS02001649YS02001757        0.86      0.86      0.94      0.06         0.04
  YS02001652YS02001649        0.67      0.67      0.86      0.01         0.01
  YS02001655YS02001652        0.44      0.44      0.64      0.01         0.01
  YS02001658YS02001655        0.22      0.22      0.44      0.01         0.01
  YS02001661YS02001658        0.02      0.02      0.22      0.01         0.01
  YS02001664YS02001661        0.01      0.01      0.08      0.01         0.01
  YS02001745YS02001748        0.01      0.01      0.16      0.01         0.01
  YS02001748YS02001751        0.19      0.19      0.31      0.01         0.01
  YS02001751YS02001754        0.31      0.31      0.54      0.01         0.01
  YS02001754YS02001757        0.59      0.59      0.94      0.01         0.01
  YS02001757CaochengTiaoxuchi        0.94      0.94      1.45      0.34         0.32
  YS02001759YS02001757        0.83      0.83      0.94      0.01         0.02
  YS02001762YS02001759        0.80      0.80      0.83      0.01         0.02
  YS02001765YS02001762        0.74      0.74      0.80      0.01         0.01
  YS02001767YS02001765        0.71      0.71      0.74      0.01         0.02
  YS02001770YS02001767        0.70      0.70      0.71      0.52         0.45
  YS02001774YS02001770        0.67      0.67      0.77      0.01         0.01
  YS02001779YS02001774        0.52      0.52      0.77      0.01         0.01
  YS02001783YS02001784        0.48      0.51      0.48      0.65         0.48
  YS02001784YS02001785        0.39      0.48      0.39      0.90         0.39
  YS02001786YS02001788        0.01      0.39      0.01      0.75         0.01
  YS02001790YS02001791        0.01      0.01      0.01      0.47         0.01
  YS02001793JiankangQianchi        0.01      0.01      7.70      0.01         0.01
  YS02001882YS02001884        0.45      0.45      0.46      0.01         0.01
  YS02001884YS02001887        0.49      0.49      0.50      0.01         0.01
  YS02001887YS02001890        0.51      0.51      0.52      0.11         0.01
  YS02001890YS02001895        0.44      0.44      0.54      0.01         0.01
  YS02001895YS02001898        0.44      0.44      0.44      0.01         0.01
  YS02001898YS02001901        0.45      0.45      0.48      0.01         0.01
  YS02001901YS02001904        0.48      0.48      0.48      0.01         0.01
  YS02001904YS02001907        0.48      0.48      0.73      0.01         0.01
  YS02001907YS02006553        0.91      0.91      0.99      0.01         0.01
  YS02001910YS02001907        0.54      0.54      0.71      0.01         0.01
  YS02001915YS02001910        0.45      0.45      0.54      0.01         0.01
  YS02001918YS02001915        0.37      0.37      0.45      0.01         0.01
  YS02001920YS02001918        0.37      0.37      0.38      0.01         0.01
  YS02001923YS02001920        0.32      0.32      0.38      0.01         0.01
  YS02001926YS02001923        0.05      0.05      0.09      0.01         0.01
  YS02001929YS02001926        0.01      0.01      0.09      0.01         0.01
  YS02006553YS02006556        0.63      0.63      0.73      0.01         0.01
  YS02006556YS02006558        0.68      0.68      0.75      0.01         0.01
  YS02006558YS02006561        0.41      0.62      0.41      0.85         0.41
  YS02006561YS02001783        0.34      0.34      0.51      0.01         0.01
  YS02163301YS02001633        0.99      0.99      1.02      0.01         0.01
  YS02163601YS02164001        0.96      0.96      1.04      0.05         0.01
  YS02164001YS02001641        0.96      0.96      0.96      0.74         0.69
  
  
  ***************
  Pumping Summary
  ***************
  
  ---------------------------------------------------------------------------------------------------------
                                                  Min       Avg       Max     Total     Power    % Time Off
                        Percent   Number of      Flow      Flow      Flow    Volume     Usage    Pump Curve
  Pump                 Utilized   Start-Ups       LPS       LPS       LPS  10^6 ltr     Kw-hr    Low   High
  ---------------------------------------------------------------------------------------------------------
  CC-R1                   22.14          16      0.00    683.00    683.00     4.355     81.02    0.0   22.0
  CC-R2                   21.21          16      0.00    683.00    683.00     4.172     77.63    0.0   23.0
  CC-S1                   24.38          16      0.00    200.00    200.00     1.404      7.92    0.0    0.0
  CC-S2                   22.96          16      0.00    200.00    200.00     1.323      7.43    0.0    0.0
  JK-R1                    7.46          11      0.00   1000.00   1000.00     2.148     25.33    0.0    0.0
  JK-R2                    0.16           1      0.00   1000.00   1000.00     0.047      0.36    0.0    0.0
  JK-S                    20.19          13      0.00    300.00    300.00     1.744     23.81    0.0    0.0
  XR-1                    97.91           2      0.00     95.00     95.00     2.679      9.60    0.0    0.0
  XR-2                    93.94           2      0.00     95.00     95.00     2.570      8.76    0.0    0.0
  XR-3                     0.00           1      0.00     95.00     95.00     0.000      0.00    0.0    0.0
  XR-4                     0.00           1      0.00     95.00     95.00     0.000      0.00    0.0    0.0
  

  Analysis begun on:  Wed Nov  5 16:32:19 2025
  Analysis ended on:  Wed Nov  5 16:32:21 2025
  Total elapsed time: 00:00:02