
  EPA STORM WATER MANAGEMENT MODEL - VERSION 5.2 (Build 5.2.4)
  PYSWMM TOOLKIT API - VERSION v1.0 (2023-11-27)
  ------------------------------------------------------------

  WARNING 04: minimum elevation drop used for Conduit WS02004404WS02004405
  WARNING 03: negative offset ignored for Link YS02001904YS02001907
  
  ****************
  Analysis Options
  ****************
  Flow Units ............... LPS
  Process Models:
    Rainfall/Runoff ........ YES
    RDII ................... NO
    Snowmelt ............... NO
    Groundwater ............ NO
    Flow Routing ........... YES
    Ponding Allowed ........ NO
    Water Quality .......... NO
  Infiltration Method ...... HORTON
  Flow Routing Method ...... DYNWAVE
  Surcharge Method ......... EXTRAN
  Starting Date ............ 08/28/2015 08:00:00
  Ending Date .............. 08/28/2015 16:00:00
  Antecedent Dry Days ...... 8.0
  Report Time Step ......... 00:01:00
  Wet Time Step ............ 00:01:00
  Dry Time Step ............ 00:01:00
  Routing Time Step ........ 30.00 sec
  Variable Time Step ....... YES
  Maximum Trials ........... 8
  Number of Threads ........ 4
  Head Tolerance ........... 0.001500 m
  
  
  **************************        Volume         Depth
  Runoff Quantity Continuity     hectare-m            mm
  **************************     ---------       -------
  Initial LID Storage ......         0.049         1.488
  Total Precipitation ......         1.554        46.853
  Evaporation Loss .........         0.000         0.000
  Infiltration Loss ........         0.073         2.209
  Surface Runoff ...........         1.128        34.004
  Final Storage ............         0.403        12.160
  Continuity Error (%) .....        -0.064
  
  
  **************************        Volume        Volume
  Flow Routing Continuity        hectare-m      10^6 ltr
  **************************     ---------     ---------
  Dry Weather Inflow .......         0.602         6.020
  Wet Weather Inflow .......         1.128        11.279
  Groundwater Inflow .......         0.000         0.000
  RDII Inflow ..............         0.000         0.000
  External Inflow ..........         0.105         1.045
  External Outflow .........         1.603        16.029
  Flooding Loss ............         0.207         2.069
  Evaporation Loss .........         0.000         0.000
  Exfiltration Loss ........         0.000         0.000
  Initial Stored Volume ....         0.303         3.031
  Final Stored Volume ......         0.333         3.326
  Continuity Error (%) .....        -0.228
  
  
  *************************
  Highest Continuity Errors
  *************************
  Node YS02001583 (-6.56%)
  Node YS02001884 (5.12%)
  Node YS02001774 (1.64%)
  
  
  ***************************
  Time-Step Critical Elements
  ***************************
  Link WS02004404WS02004405 (46.40%)
  Link WS02006238WS02006235 (17.89%)
  Link WS02006252WS02006251 (11.14%)
  Link YS02001791YS02001793 (9.62%)
  Link WS02003066WSF200 (3.93%)
  
  
  ********************************
  Highest Flow Instability Indexes
  ********************************
  Link WS02006113WS02006111 (25)
  Link WS02006238WS02006235 (21)
  Link WS02006111WS02006112 (16)
  Link WS02006252WS02006251 (16)
  Link WS02006235WS02006234 (15)
  
  
  *********************************
  Most Frequent Nonconverging Nodes
  *********************************
  Node CC-1 (10.17%)
  Node CC-2 (10.17%)
  Node JK-1 (10.17%)
  Node JK-2 (10.17%)
  Node WSC (10.17%)
  
  
  *************************
  Routing Time Step Summary
  *************************
  Minimum Time Step           :     0.01 sec
  Average Time Step           :     3.67 sec
  Maximum Time Step           :     7.04 sec
  % of Time in Steady State   :     0.00
  Average Iterations per Step :     3.02
  % of Steps Not Converging   :    10.17
  Time Step Frequencies       :
     30.000 - 13.228 sec      :     0.00 %
     13.228 -  5.833 sec      :    32.15 %
      5.833 -  2.572 sec      :    23.88 %
      2.572 -  1.134 sec      :    27.30 %
      1.134 -  0.500 sec      :    16.66 %
  
  
  ***************************
  Subcatchment Runoff Summary
  ***************************
  
  ------------------------------------------------------------------------------------------------------------------------------
                            Total      Total      Total      Total     Imperv       Perv      Total       Total     Peak  Runoff
                           Precip      Runon       Evap      Infil     Runoff     Runoff     Runoff      Runoff   Runoff   Coeff
  Subcatchment                 mm         mm         mm         mm         mm         mm         mm    10^6 ltr      LPS
  ------------------------------------------------------------------------------------------------------------------------------
  sub60                     46.85       0.00       0.00       1.31      30.89       3.03      33.92        0.45   319.01   0.724
  sub61                     46.85       0.00       0.00       2.02      30.87       4.50      35.36        0.65   464.21   0.755
  sub62                     46.85       0.00       0.00       0.89      32.90       2.06      34.96        0.96   633.82   0.746
  sub63                     46.85       0.00       0.00       3.71      26.44       7.42      33.86        0.77   518.93   0.723
  sub64                     46.85       0.00       0.00       1.78      30.10       3.70      33.80        0.81   516.51   0.721
  sub65                     46.85       0.00       0.00       1.63      32.48       3.38      35.85        0.99   602.98   0.765
  sub66                     46.85       0.00       0.00       4.34      25.55       6.44      31.98        1.49   769.17   0.683
  sub67                     46.85       0.00       0.00       0.89      33.74       2.14      35.87        0.67   497.11   0.766
  sub68                     46.85       0.00       0.00       1.55      29.79       3.45      33.24        0.91   631.00   0.710
  sub69                     46.85       0.00       0.00       1.40      31.48       4.17      35.65        1.32   781.63   0.761
  sub70                     46.85       0.00       0.00       4.74      25.21       8.30      33.51        0.97   444.89   0.715
  sub71                     46.85       0.00       0.00       0.82      29.88       1.86      31.74        0.83   523.82   0.677
  sub72                     46.85       0.00       0.00       0.79      32.27       1.72      33.99        0.47   268.76   0.726
  

  ***********************
  LID Performance Summary
  ***********************

  --------------------------------------------------------------------------------------------------------------------
                                         Total      Evap     Infil   Surface    Drain    Initial     Final  Continuity
                                        Inflow      Loss      Loss   Outflow   Outflow   Storage   Storage       Error
  Subcatchment      LID Control             mm        mm        mm        mm        mm        mm        mm           %
  --------------------------------------------------------------------------------------------------------------------
  sub60             GreenRoof            46.85      0.00      0.00      0.00      0.00      7.05     54.01       -0.20
  sub61             GreenRoof            46.85      0.00      0.00      0.00      0.00      7.05     54.01       -0.20
  sub62             GreenRoof            46.85      0.00      0.00      0.00      0.00      7.05     54.01       -0.20
  sub63             GreenRoof            46.85      0.00      0.00      0.00      0.00      7.05     54.01       -0.20
  sub64             GreenRoof            46.85      0.00      0.00      0.00      0.00      7.05     54.01       -0.20
  sub65             GreenRoof            46.85      0.00      0.00      0.00      0.00      7.05     54.01       -0.20
  sub66             GreenRoof            46.85      0.00      0.00      0.00      0.00      7.05     54.01       -0.20
  sub67             GreenRoof            46.85      0.00      0.00      0.00      0.00      7.05     54.01       -0.20
  sub68             GreenRoof            46.85      0.00      0.00      0.00      0.00      7.05     54.01       -0.20
  sub69             GreenRoof            46.85      0.00      0.00      0.00      0.00      7.05     54.01       -0.20
  sub70             GreenRoof            46.85      0.00      0.00      0.00      0.00      7.05     54.01       -0.20
  sub71             GreenRoof            46.85      0.00      0.00      0.00      0.00      7.05     54.01       -0.20
  sub72             GreenRoof            46.85      0.00      0.00      0.00      0.00      7.05     54.01       -0.20
  
  ******************
  Node Depth Summary
  ******************
  
  ---------------------------------------------------------------------------------
                                 Average  Maximum  Maximum  Time of Max    Reported
                                   Depth    Depth      HGL   Occurrence   Max Depth
  Node                 Type       Meters   Meters   Meters  days hr:min      Meters
  ---------------------------------------------------------------------------------
  WS02001211           JUNCTION     0.60     0.64     5.48     0  02:58        0.64
  WS02001212           JUNCTION     0.33     0.38     5.45     0  02:57        0.38
  WS02001213           JUNCTION     0.52     0.65     5.41     0  02:54        0.65
  WS02003059           JUNCTION     0.59     0.72     5.40     0  02:54        0.72
  WS02003060           JUNCTION     0.29     0.45     5.39     0  02:53        0.45
  WS02003066           JUNCTION     0.15     0.30     5.85     0  02:52        0.30
  WS02003067           JUNCTION     0.41     0.70     6.02     0  02:52        0.70
  WS02003069           JUNCTION     0.33     0.51     5.10     0  02:54        0.51
  WS02003072           JUNCTION     0.39     0.58     4.95     0  02:54        0.58
  WS02003073           JUNCTION     0.23     0.35     4.41     0  02:55        0.35
  WS02004138           JUNCTION     0.13     0.14     7.39     0  00:29        0.14
  WS02004139           JUNCTION     0.54     0.58     5.49     0  02:56        0.58
  WS02004401           JUNCTION     0.50     0.85     6.85     0  02:50        0.85
  WS02004402           JUNCTION     0.53     0.88     6.84     0  02:50        0.88
  WS02004403           JUNCTION     0.56     0.89     6.82     0  02:50        0.89
  WS02004404           JUNCTION     0.63     0.96     6.81     0  02:50        0.96
  WS02004405           JUNCTION     0.63     0.96     6.81     0  02:50        0.96
  WS02004406           JUNCTION     0.64     0.96     6.79     0  02:50        0.96
  WS02004407           JUNCTION     0.13     0.30     6.61     0  02:51        0.30
  WS02004409           JUNCTION     0.29     0.67     6.44     0  02:51        0.67
  WS02004410           JUNCTION     0.32     0.68     6.40     0  02:51        0.68
  WS02004411           JUNCTION     0.34     0.69     6.37     0  02:51        0.69
  WS02004412           JUNCTION     0.37     0.70     6.34     0  02:52        0.70
  WS02004413           JUNCTION     0.52     0.86     6.33     0  02:52        0.86
  WS02006109           JUNCTION     0.56     1.21     7.83     0  03:21        0.97
  WS02006110           JUNCTION     0.56     1.23     7.81     0  03:21        0.92
  WS02006111           JUNCTION     0.13     0.29     6.99     0  02:31        0.29
  WS02006112           JUNCTION     0.65     1.06     6.95     0  02:23        1.06
  WS02006113           JUNCTION     0.20     0.46     7.35     0  02:45        0.46
  WS02006115           JUNCTION     0.38     0.75     6.89     0  02:49        0.75
  WS02006116           JUNCTION     0.47     0.83     6.87     0  02:50        0.83
  WS02006228           JUNCTION     0.55     1.17     7.82     0  03:21        1.02
  WS02006229           JUNCTION     0.52     1.12     7.82     0  03:21        1.03
  WS02006230           JUNCTION     0.52     1.23     7.97     0  03:20        1.16
  WS02006231           JUNCTION     0.33     0.95     8.07     0  03:15        0.92
  WS02006232           JUNCTION     0.46     1.19     8.22     0  03:21        1.15
  WS02006234           JUNCTION     0.39     1.25     8.40     0  03:21        1.22
  WS02006235           JUNCTION     0.43     1.36     8.52     0  03:21        1.35
  WS02006238           JUNCTION     0.46     1.39     8.54     0  03:21        1.39
  WS02006239           JUNCTION     0.42     1.40     8.61     0  03:21        1.40
  WS02006240           JUNCTION     0.39     1.37     8.66     0  03:21        1.36
  WS02006242           JUNCTION     0.44     1.43     8.70     0  03:21        1.42
  WS02006243           JUNCTION     0.37     1.29     8.71     0  03:21        1.29
  WS02006245           JUNCTION     0.37     1.23     8.72     0  03:21        1.23
  WS02006247           JUNCTION     0.39     1.21     8.71     0  03:16        1.21
  WS02006248           JUNCTION     0.36     1.10     8.69     0  02:29        1.10
  WS02006249           JUNCTION     0.38     1.09     8.69     0  02:10        1.09
  WS02006251           JUNCTION     0.38     1.41     9.08     0  02:10        1.13
  WS02006252           JUNCTION     0.26     1.50     9.74     0  00:00        0.70
  WS02006256           JUNCTION     1.09     2.35     9.28     0  00:00        2.35
  WSF200               JUNCTION     0.12     0.31     5.54     0  02:53        0.31
  YS02001580           JUNCTION     0.08     1.05     9.59     0  02:09        0.77
  YS02001583           JUNCTION     0.11     1.08     9.58     0  02:09        0.82
  YS02001586           JUNCTION     0.20     1.13     9.30     0  02:09        1.13
  YS02001590           JUNCTION     0.30     1.40     9.26     0  02:06        1.37
  YS02001593           JUNCTION     0.23     1.33     9.19     0  02:09        1.29
  YS02001596           JUNCTION     0.33     1.69     9.10     0  02:09        1.65
  YS02001600           JUNCTION     0.42     1.87     9.00     0  02:09        1.86
  YS02001601           JUNCTION     0.61     2.06     8.90     0  02:08        2.06
  YS02001602           JUNCTION     0.52     1.87     8.77     0  02:08        1.87
  YS02001605           JUNCTION     0.47     1.78     8.68     0  02:08        1.78
  YS02001607           JUNCTION     0.45     1.68     8.53     0  02:08        1.68
  YS02001610           JUNCTION     0.49     1.68     8.48     0  02:08        1.68
  YS02001613           JUNCTION     0.45     1.70     8.54     0  02:08        1.70
  YS02001616           JUNCTION     0.38     1.61     8.52     0  02:08        1.61
  YS02001619           JUNCTION     0.36     1.61     8.54     0  02:08        1.61
  YS02001622           JUNCTION     0.35     1.62     8.52     0  02:08        1.62
  YS02001625           JUNCTION     0.60     1.78     8.38     0  02:11        1.78
  YS02001629           JUNCTION     0.48     1.85     8.40     0  02:11        1.85
  YS02001633           JUNCTION     0.55     2.02     8.48     0  02:12        1.97
  YS02001641           JUNCTION     0.52     1.96     8.40     0  02:12        1.94
  YS02001644           JUNCTION     0.52     1.92     8.35     0  02:12        1.92
  YS02001647           JUNCTION     0.30     1.76     8.37     0  02:13        1.68
  YS02001649           JUNCTION     0.34     1.95     8.34     0  02:13        1.83
  YS02001652           JUNCTION     0.23     1.86     8.45     0  02:13        1.65
  YS02001655           JUNCTION     0.16     1.84     8.69     0  02:13        1.42
  YS02001658           JUNCTION     0.11     1.82     8.96     0  02:13        1.15
  YS02001661           JUNCTION     0.14     1.02     8.43     0  02:14        0.90
  YS02001664           JUNCTION     0.06     0.48     8.41     0  02:13        0.48
  YS02001745           JUNCTION     0.06     0.71     8.23     0  02:13        0.62
  YS02001748           JUNCTION     0.10     1.73     8.80     0  02:13        1.07
  YS02001751           JUNCTION     0.13     1.70     8.58     0  02:13        1.26
  YS02001754           JUNCTION     0.19     1.78     8.39     0  02:13        1.53
  YS02001757           JUNCTION     0.35     2.00     8.26     0  02:13        1.85
  YS02001759           JUNCTION     0.29     1.96     8.32     0  02:13        1.82
  YS02001762           JUNCTION     0.28     1.91     8.31     0  02:13        1.81
  YS02001765           JUNCTION     0.26     1.88     8.33     0  02:13        1.79
  YS02001767           JUNCTION     0.26     1.85     8.34     0  02:13        1.79
  YS02001770           JUNCTION     0.27     1.95     8.44     0  02:11        1.83
  YS02001774           JUNCTION     0.34     2.02     8.44     0  02:11        1.91
  YS02001779           JUNCTION     0.17     1.68     8.37     0  02:11        1.68
  YS02001783           JUNCTION     0.26     1.27     7.41     0  02:12        1.21
  YS02001784           JUNCTION     0.27     1.15     7.21     0  02:12        1.10
  YS02001786           JUNCTION     0.23     0.90     6.93     0  02:12        0.86
  YS02001788           JUNCTION     0.17     0.62     6.60     0  02:12        0.62
  YS02001790           JUNCTION     0.20     0.72     6.37     0  02:12        0.71
  YS02001791           JUNCTION     0.13     0.44     5.91     0  02:13        0.43
  YS02001793           JUNCTION     0.07     0.28     5.12     0  02:17        0.27
  YS02001882           JUNCTION     0.31     1.83     8.55     0  02:11        1.62
  YS02001884           JUNCTION     0.40     1.93     8.55     0  02:11        1.72
  YS02001887           JUNCTION     0.47     1.97     8.51     0  02:11        1.80
  YS02001890           JUNCTION     0.50     1.81     8.32     0  02:11        1.81
  YS02001895           JUNCTION     0.28     1.65     8.40     0  02:11        1.55
  YS02001898           JUNCTION     0.29     1.77     8.51     0  02:11        1.77
  YS02001901           JUNCTION     0.40     1.68     8.29     0  02:12        1.67
  YS02001904           JUNCTION     0.38     1.64     8.27     0  02:12        1.63
  YS02001907           JUNCTION     0.69     1.96     8.25     0  02:12        1.96
  YS02001910           JUNCTION     0.49     1.97     8.47     0  02:12        1.94
  YS02001915           JUNCTION     0.31     1.90     8.62     0  02:12        1.88
  YS02001918           JUNCTION     0.15     1.81     8.88     0  02:12        1.81
  YS02001920           JUNCTION     0.23     2.14     9.15     0  02:12        2.08
  YS02001923           JUNCTION     0.11     2.03     9.29     0  02:12        2.03
  YS02001926           JUNCTION     0.15     1.90     9.35     0  02:12        1.90
  YS02001929           JUNCTION     0.08     1.78     9.47     0  02:12        1.66
  YS02006553           JUNCTION     0.69     1.97     8.25     0  02:12        1.95
  YS02006556           JUNCTION     0.67     1.93     8.24     0  02:12        1.92
  YS02006558           JUNCTION     0.71     1.97     8.24     0  02:12        1.97
  YS02006561           JUNCTION     0.15     0.99     7.65     0  02:12        0.87
  YS02163301           JUNCTION     0.50     1.92     8.44     0  02:12        1.90
  YS02163601           JUNCTION     0.58     2.05     8.45     0  02:12        2.00
  YS02164001           JUNCTION     0.51     1.97     8.43     0  02:12        1.92
  CC-1                 OUTFALL      0.00     0.00     0.00     0  00:00        0.00
  CC-2                 OUTFALL      0.00     0.00     0.00     0  00:00        0.00
  JK-1                 OUTFALL      0.00     0.00     0.00     0  00:00        0.00
  JK-2                 OUTFALL      0.00     0.00     0.00     0  00:00        0.00
  WSC                  OUTFALL      0.23     0.35     1.02     0  02:55        0.35
  CC-storage           STORAGE      0.78     1.51     7.01     0  02:30        1.51
  JK-storage           STORAGE      2.57     4.23     5.03     0  02:20        4.18
  XR-storage           STORAGE      7.82     9.26     7.26     0  08:00        9.26
  
  
  *******************
  Node Inflow Summary
  *******************
  
  -------------------------------------------------------------------------------------------------
                                  Maximum  Maximum                  Lateral       Total        Flow
                                  Lateral    Total  Time of Max      Inflow      Inflow     Balance
                                   Inflow   Inflow   Occurrence      Volume      Volume       Error
  Node                 Type           LPS      LPS  days hr:min    10^6 ltr    10^6 ltr     Percent
  -------------------------------------------------------------------------------------------------
  WS02001211           JUNCTION      7.35   200.58     0  03:25       0.212        5.44       0.611
  WS02001212           JUNCTION      0.00   202.61     0  03:20           0        5.41       0.290
  WS02001213           JUNCTION      0.00   204.23     0  03:35           0        5.39       0.331
  WS02003059           JUNCTION      0.00   210.19     0  03:35           0        5.38       0.592
  WS02003060           JUNCTION     16.53   751.57     0  02:54       0.476        8.74       0.160
  WS02003066           JUNCTION      0.00   537.26     0  02:52           0        2.91       0.041
  WS02003067           JUNCTION      0.00   537.22     0  02:52           0        2.92       0.138
  WS02003069           JUNCTION      0.32   751.40     0  02:53     0.00922        8.72       0.170
  WS02003072           JUNCTION      0.00   751.20     0  02:54           0        8.71       0.232
  WS02003073           JUNCTION      1.82   752.90     0  02:54      0.0524        8.74       0.238
  WS02004138           JUNCTION      0.00   380.00     0  00:00           0        5.25       0.053
  WS02004139           JUNCTION      0.32   191.16     0  00:29     0.00924        5.26       0.509
  WS02004401           JUNCTION      0.00   540.91     0  02:50           0        3.01       0.328
  WS02004402           JUNCTION      0.00   539.89     0  02:50           0           3       0.335
  WS02004403           JUNCTION      0.00   539.74     0  02:50           0        2.99       0.328
  WS02004404           JUNCTION      0.16   539.30     0  02:50     0.00467        2.99       0.284
  WS02004405           JUNCTION      0.04   539.20     0  02:50      0.0011        2.98       0.402
  WS02004406           JUNCTION      0.00   539.39     0  02:50           0        2.97       0.687
  WS02004407           JUNCTION      0.00   538.75     0  02:51           0        2.95       0.031
  WS02004409           JUNCTION      0.00   538.37     0  02:51           0        2.95       0.076
  WS02004410           JUNCTION      0.00   538.00     0  02:51           0        2.94       0.132
  WS02004411           JUNCTION      0.00   537.74     0  02:51           0        2.94       0.173
  WS02004412           JUNCTION      0.00   537.56     0  02:52           0        2.94       0.237
  WS02004413           JUNCTION      0.00   537.55     0  02:52           0        2.93       0.428
  WS02006109           JUNCTION      1.23   547.00     0  03:21      0.0354        3.06       0.265
  WS02006110           JUNCTION      0.00   547.31     0  03:16           0        3.05       0.212
  WS02006111           JUNCTION      0.00   560.46     0  03:12           0        3.04       0.022
  WS02006112           JUNCTION      0.00   543.48     0  02:49           0        3.04       0.574
  WS02006113           JUNCTION      0.00   564.98     0  03:21           0        3.04       0.051
  WS02006115           JUNCTION      0.00   546.73     0  02:38           0        3.02       0.204
  WS02006116           JUNCTION      0.00   542.39     0  02:49           0        3.02       0.151
  WS02006228           JUNCTION      0.00   546.52     0  03:16           0        3.02       0.111
  WS02006229           JUNCTION      0.00   547.40     0  03:16           0        3.03       0.130
  WS02006230           JUNCTION     10.28   580.97     0  03:20       0.296        3.03       0.189
  WS02006231           JUNCTION      0.00   568.22     0  03:20           0        2.74      -0.082
  WS02006232           JUNCTION      0.00   566.98     0  03:20           0        2.74       0.244
  WS02006234           JUNCTION      0.00   563.06     0  03:20           0        2.74      -0.198
  WS02006235           JUNCTION      0.00   557.55     0  03:20           0        2.77       0.215
  WS02006238           JUNCTION      0.00   419.06     0  03:16           0        1.84      -0.127
  WS02006239           JUNCTION      0.00   419.53     0  03:16           0        1.82      -0.033
  WS02006240           JUNCTION      0.00   417.67     0  03:16           0         1.8      -0.070
  WS02006242           JUNCTION      0.00   417.67     0  03:16           0        1.79      -0.197
  WS02006243           JUNCTION      0.00   418.10     0  03:16           0        1.78      -0.146
  WS02006245           JUNCTION      0.00   418.02     0  03:16           0        1.79       0.577
  WS02006247           JUNCTION      0.00   417.93     0  03:16           0        1.79      -0.002
  WS02006248           JUNCTION      0.00   415.66     0  03:16           0        1.79      -0.148
  WS02006249           JUNCTION      0.00   458.97     0  00:00           0        2.07       0.646
  WS02006251           JUNCTION      0.08   407.80     0  02:10     0.00222        2.07       0.050
  WS02006252           JUNCTION      0.00   400.00     0  00:00           0        2.06      -0.490
  WS02006256           JUNCTION      0.00   300.00     0  00:00           0         1.4      -0.318
  WSF200               JUNCTION      0.00   537.31     0  02:53           0        2.91       0.016
  YS02001580           JUNCTION      0.00   106.98     0  02:08           0     0.00398      -5.253
  YS02001583           JUNCTION      0.00   182.06     0  02:09           0      0.0147      -6.156
  YS02001586           JUNCTION    444.89   444.89     0  02:15       0.968        0.98       0.130
  YS02001590           JUNCTION      0.00   318.03     0  02:19           0       0.907      -0.044
  YS02001593           JUNCTION      0.00   317.96     0  02:19           0       0.907       0.005
  YS02001596           JUNCTION      0.00   317.93     0  02:12           0       0.907      -0.010
  YS02001600           JUNCTION      0.00   318.03     0  02:15           0       0.907       0.013
  YS02001601           JUNCTION    781.63  1098.91     0  02:14        1.32        2.23       0.028
  YS02001602           JUNCTION      0.00   521.81     0  02:08           0        1.68       0.013
  YS02001605           JUNCTION      0.00   521.62     0  02:08           0        1.63       0.024
  YS02001607           JUNCTION      0.00   521.32     0  02:08           0        1.63       0.107
  YS02001610           JUNCTION      0.00   529.92     0  02:08           0        1.63       0.124
  YS02001613           JUNCTION      0.00   532.61     0  02:08           0        1.48       0.097
  YS02001616           JUNCTION      0.00   530.78     0  02:08           0        1.48       0.021
  YS02001619           JUNCTION    769.17   932.00     0  02:10        1.49        2.97      -0.008
  YS02001622           JUNCTION      0.00   931.24     0  02:10           0        2.97      -0.003
  YS02001625           JUNCTION      0.00   931.97     0  02:08           0        2.97       0.300
  YS02001629           JUNCTION      0.00   931.74     0  02:08           0        2.65       0.025
  YS02001633           JUNCTION    603.18  1375.23     0  02:10       0.993        3.64       0.093
  YS02001641           JUNCTION      0.00  1372.05     0  02:10           0        3.63       0.073
  YS02001644           JUNCTION    516.55  1769.50     0  02:11       0.813        4.44       0.071
  YS02001647           JUNCTION      0.00  1772.14     0  02:11           0        4.42       0.010
  YS02001649           JUNCTION      0.00  2010.95     0  02:10           0         5.2       0.005
  YS02001652           JUNCTION      0.00   636.40     0  02:14           0       0.775      -0.111
  YS02001655           JUNCTION      0.15   634.42     0  02:14     0.00443       0.774       0.021
  YS02001658           JUNCTION      0.00   677.80     0  02:13           0       0.769      -0.056
  YS02001661           JUNCTION      0.00   740.23     0  02:14           0       0.769       0.016
  YS02001664           JUNCTION    518.93   518.93     0  02:13       0.769       0.769      -0.012
  YS02001745           JUNCTION    319.02   410.10     0  02:13       0.446       0.447       0.302
  YS02001748           JUNCTION      0.04   599.05     0  02:13      0.0013       0.449      -0.367
  YS02001751           JUNCTION      0.01   369.99     0  02:14    0.000317       0.458       0.134
  YS02001754           JUNCTION      0.26   369.97     0  02:14     0.00749       0.474      -0.258
  YS02001757           JUNCTION      0.00  3089.51     0  02:14           0        7.29       0.019
  YS02001759           JUNCTION    464.25  1111.41     0  02:13        0.65        1.63      -0.012
  YS02001762           JUNCTION      0.00   649.36     0  02:13           0       0.976      -0.021
  YS02001765           JUNCTION      0.00   648.98     0  02:13           0       0.975       0.021
  YS02001767           JUNCTION      0.54   647.23     0  02:13      0.0154       0.975       0.017
  YS02001770           JUNCTION    633.97   640.04     0  02:13       0.962           1      -0.033
  YS02001774           JUNCTION      0.00   443.37     0  02:11           0      0.0624       1.665
  YS02001779           JUNCTION      0.01   456.10     0  02:11    0.000144        0.02      -4.953
  YS02001783           JUNCTION      0.00  1149.53     0  02:13           0        2.72       0.007
  YS02001784           JUNCTION      1.06  1150.59     0  02:13      0.0305        2.75       0.018
  YS02001786           JUNCTION      0.06  1150.50     0  02:13     0.00162        2.75       0.023
  YS02001788           JUNCTION      0.07  1150.62     0  02:13     0.00204        2.75       0.010
  YS02001790           JUNCTION      0.15  1162.35     0  02:13     0.00446        2.76       0.024
  YS02001791           JUNCTION      0.00  1284.11     0  02:13           0        2.76      -0.017
  YS02001793           JUNCTION      0.00  1233.01     0  02:13           0        2.76       0.008
  YS02001882           JUNCTION      0.00    55.46     0  02:10           0      0.0122       5.000
  YS02001884           JUNCTION      0.00    71.31     0  02:09           0      0.0478       5.399
  YS02001887           JUNCTION    497.56   498.22     0  02:13        0.68       0.713       0.613
  YS02001890           JUNCTION      0.00   499.16     0  02:13           0       0.673       0.747
  YS02001895           JUNCTION      0.00   491.44     0  02:13           0       0.667       0.213
  YS02001898           JUNCTION      0.00   492.42     0  02:13           0       0.665       0.024
  YS02001901           JUNCTION      0.00   491.05     0  02:13           0       0.668       0.484
  YS02001904           JUNCTION      0.00   492.28     0  02:13           0       0.672       0.401
  YS02001907           JUNCTION      0.00  1461.80     0  02:13           0        2.04       0.867
  YS02001910           JUNCTION      0.00   979.35     0  02:13           0        1.38       0.521
  YS02001915           JUNCTION    523.84   978.53     0  02:13       0.831        1.42       0.109
  YS02001918           JUNCTION      0.00   455.50     0  02:13           0       0.619       0.006
  YS02001920           JUNCTION      2.87   454.38     0  02:13      0.0827       0.601       0.162
  YS02001923           JUNCTION      0.04   408.88     0  02:13     0.00109       0.502      -0.177
  YS02001926           JUNCTION      0.05   605.33     0  02:12      0.0015       0.482      -0.140
  YS02001929           JUNCTION    268.76   456.28     0  02:12       0.467        0.47      -0.006
  YS02006553           JUNCTION      0.00   794.95     0  02:22           0        1.83       0.637
  YS02006556           JUNCTION      0.00   794.43     0  02:22           0        1.83       0.429
  YS02006558           JUNCTION    631.88  1169.07     0  02:12        0.94        2.75       0.128
  YS02006561           JUNCTION      0.00  1168.76     0  02:12           0        2.72      -0.001
  YS02163301           JUNCTION      0.00   929.61     0  02:10           0        2.64       0.056
  YS02163601           JUNCTION      0.11  1373.96     0  02:10     0.00317        3.63       0.134
  YS02164001           JUNCTION      0.00  1372.73     0  02:10           0        3.63       0.064
  CC-1                 OUTFALL       0.00   683.00     0  00:00           0         3.1       0.000
  CC-2                 OUTFALL       0.00   683.00     0  00:00           0        2.89       0.000
  JK-1                 OUTFALL       0.00  1000.00     0  00:00           0        1.27       0.000
  JK-2                 OUTFALL       0.00  1000.00     0  00:00           0      0.0484       0.000
  WSC                  OUTFALL       0.00   752.80     0  02:55           0        8.72       0.000
  CC-storage           STORAGE       0.00  3089.15     0  02:14           0         9.5      -0.261
  JK-storage           STORAGE       0.00  1263.81     0  02:13           0        2.91       0.201
  XR-storage           STORAGE     200.00   200.00     0  00:00        5.76        6.36       0.001
  
  
  **********************
  Node Surcharge Summary
  **********************
  
  Surcharging occurs when water rises above the top of the highest conduit.
  ---------------------------------------------------------------------
                                               Max. Height   Min. Depth
                                   Hours       Above Crown    Below Rim
  Node                 Type      Surcharged         Meters       Meters
  ---------------------------------------------------------------------
  WS02006109           JUNCTION        1.20          0.390        1.430
  WS02006110           JUNCTION        1.02          0.318        1.532
  WS02006112           JUNCTION        0.97          0.064        1.616
  WS02006228           JUNCTION        1.20          0.341        1.859
  WS02006229           JUNCTION        1.20          0.321        2.129
  WS02006230           JUNCTION        1.03          0.146        1.424
  WS02006231           JUNCTION        1.05          0.239        1.291
  WS02006232           JUNCTION        1.25          0.485        0.995
  WS02006234           JUNCTION        1.16          0.528        0.712
  WS02006235           JUNCTION        1.20          0.647        0.643
  WS02006238           JUNCTION        1.22          0.672        0.758
  WS02006239           JUNCTION        1.19          0.659        0.631
  WS02006240           JUNCTION        1.19          0.660        0.730
  WS02006242           JUNCTION        1.21          0.698        0.122
  WS02006243           JUNCTION        1.19          0.585        0.185
  WS02006245           JUNCTION        1.19          0.521        0.329
  WS02006247           JUNCTION        1.19          0.499        0.261
  WS02006248           JUNCTION        1.18          0.380        0.000
  WS02006249           JUNCTION        1.18          0.390        0.000
  WS02006251           JUNCTION        1.06          0.384        0.796
  WS02006252           JUNCTION        1.35          1.100        0.000
  WS02006256           JUNCTION        3.37          2.050        0.000
  YS02001580           JUNCTION        0.32          0.450        0.000
  YS02001583           JUNCTION        0.33          0.444        0.056
  YS02001586           JUNCTION        0.43          0.510        0.000
  YS02001590           JUNCTION        0.49          0.750        0.000
  YS02001593           JUNCTION        0.49          0.708        0.132
  YS02001596           JUNCTION        0.59          0.956        0.114
  YS02001600           JUNCTION        0.70          1.190        0.000
  YS02001601           JUNCTION        1.02          1.440        0.000
  YS02001602           JUNCTION        0.90          1.270        0.000
  YS02001605           JUNCTION        0.86          1.180        0.000
  YS02001607           JUNCTION        0.46          0.680        0.000
  YS02001610           JUNCTION        0.48          0.680        0.000
  YS02001613           JUNCTION        0.46          0.700        0.000
  YS02001616           JUNCTION        0.42          0.610        0.000
  YS02001619           JUNCTION        0.41          0.610        0.000
  YS02001622           JUNCTION        0.41          0.620        0.000
  YS02001625           JUNCTION        0.55          0.780        0.000
  YS02001629           JUNCTION        0.38          0.470        0.000
  YS02001633           JUNCTION        0.57          1.004        0.056
  YS02001641           JUNCTION        0.51          0.962        0.138
  YS02001644           JUNCTION        0.48          0.920        0.000
  YS02001647           JUNCTION        0.32          0.761        0.139
  YS02001649           JUNCTION        0.41          0.951        0.099
  YS02001652           JUNCTION        0.26          0.826        0.304
  YS02001655           JUNCTION        0.17          0.841        0.359
  YS02001658           JUNCTION        0.04          0.820        0.480
  YS02001748           JUNCTION        0.01          0.645        0.545
  YS02001751           JUNCTION        0.09          0.704        0.496
  YS02001754           JUNCTION        0.19          0.731        0.419
  YS02001757           JUNCTION        0.44          0.998        0.212
  YS02001759           JUNCTION        0.37          0.956        0.254
  YS02001762           JUNCTION        0.35          0.907        0.243
  YS02001765           JUNCTION        0.31          0.881        0.219
  YS02001767           JUNCTION        0.29          0.848        0.182
  YS02001770           JUNCTION        0.27          0.920        0.000
  YS02001774           JUNCTION        0.33          1.016        0.034
  YS02001779           JUNCTION        0.19          0.680        0.000
  YS02001783           JUNCTION        0.30          0.474        1.126
  YS02001784           JUNCTION        0.28          0.346        1.144
  YS02001786           JUNCTION        0.19          0.100        1.330
  YS02001882           JUNCTION        0.26          0.830        0.000
  YS02001884           JUNCTION        0.26          0.870        0.000
  YS02001887           JUNCTION        0.29          0.922        0.028
  YS02001890           JUNCTION        0.30          0.760        0.000
  YS02001895           JUNCTION        0.25          0.650        0.100
  YS02001898           JUNCTION        0.24          0.740        0.000
  YS02001901           JUNCTION        0.28          0.680        0.190
  YS02001904           JUNCTION        0.27          0.643        0.207
  YS02001907           JUNCTION        0.47          0.950        0.000
  YS02001910           JUNCTION        0.32          0.967        0.133
  YS02001915           JUNCTION        0.25          0.902        0.098
  YS02001918           JUNCTION        0.18          0.810        0.000
  YS02001920           JUNCTION        0.19          1.140        0.000
  YS02001923           JUNCTION        0.01          0.820        0.000
  YS02001926           JUNCTION        0.01          0.900        0.000
  YS02001929           JUNCTION        0.01          0.780        0.000
  YS02006553           JUNCTION        0.48          0.967        0.223
  YS02006556           JUNCTION        0.40          0.894        0.456
  YS02006558           JUNCTION        0.39          0.872        0.528
  YS02006561           JUNCTION        0.15          0.189        0.961
  YS02163301           JUNCTION        0.56          0.921        0.109
  YS02163601           JUNCTION        0.60          1.052        0.028
  YS02164001           JUNCTION        0.52          0.971        0.129
  
  
  *********************
  Node Flooding Summary
  *********************
  
  Flooding refers to all water that overflows a node, whether it ponds or not.
  --------------------------------------------------------------------------
                                                             Total   Maximum
                                 Maximum   Time of Max       Flood    Ponded
                        Hours       Rate    Occurrence      Volume     Depth
  Node                 Flooded       LPS   days hr:min    10^6 ltr    Meters
  --------------------------------------------------------------------------
  WS02006248              0.01      3.34      0  03:16       0.000     0.000
  WS02006249              1.05    108.44      0  02:10       0.266     0.000
  WS02006252              0.01    245.63      0  00:00       0.000     0.000
  WS02006256              1.29    293.19      0  00:00       0.451     0.000
  YS02001580              0.01     81.69      0  02:09       0.000     0.000
  YS02001586              0.24    127.74      0  02:15       0.061     0.000
  YS02001590              0.01     32.06      0  02:06       0.000     0.000
  YS02001600              0.01      3.52      0  02:09       0.000     0.000
  YS02001601              0.37    700.96      0  02:14       0.542     0.000
  YS02001602              0.29     61.96      0  02:18       0.056     0.000
  YS02001605              0.01      4.82      0  02:08       0.000     0.000
  YS02001607              0.01      9.41      0  02:08       0.000     0.000
  YS02001610              0.24    267.74      0  02:16       0.147     0.000
  YS02001613              0.01     25.67      0  02:08       0.000     0.000
  YS02001616              0.01     32.65      0  02:08       0.000     0.000
  YS02001619              0.01     94.35      0  02:08       0.000     0.000
  YS02001622              0.01     32.16      0  02:08       0.000     0.000
  YS02001625              0.22    839.73      0  02:15       0.311     0.000
  YS02001629              0.04     57.94      0  02:13       0.005     0.000
  YS02001644              0.03    152.18      0  02:14       0.012     0.000
  YS02001770              0.01     72.77      0  02:11       0.000     0.000
  YS02001779              0.01    367.39      0  02:11       0.004     0.000
  YS02001882              0.01     14.19      0  02:11       0.000     0.000
  YS02001884              0.01     12.07      0  02:11       0.000     0.000
  YS02001890              0.02     39.63      0  02:11       0.001     0.000
  YS02001898              0.01     75.42      0  02:11       0.000     0.000
  YS02001907              0.13    943.20      0  02:13       0.208     0.000
  YS02001918              0.01    201.03      0  02:13       0.002     0.000
  YS02001920              0.01     43.69      0  02:12       0.000     0.000
  YS02001923              0.01    143.63      0  02:12       0.001     0.000
  YS02001926              0.01    169.40      0  02:13       0.001     0.000
  YS02001929              0.01     78.36      0  02:12       0.000     0.000
  
  
  **********************
  Storage Volume Summary
  **********************
  
  ------------------------------------------------------------------------------------------------
                         Average    Avg   Evap  Exfil     Maximum    Max    Time of Max    Maximum
                          Volume   Pcnt   Pcnt   Pcnt      Volume   Pcnt     Occurrence    Outflow
  Storage Unit           1000 m³   Full   Loss   Loss     1000 m³   Full    days hr:min        LPS
  ------------------------------------------------------------------------------------------------
  CC-storage               2.183   34.1    0.0    0.0       4.211   65.7       0  02:30    1783.53
  JK-storage               0.129   44.4    0.0    0.0       0.212   72.9       0  02:20    2300.00
  XR-storage               0.939   65.2    0.0    0.0       1.111   77.2       0  08:00     380.00
  
  
  ***********************
  Outfall Loading Summary
  ***********************
  
  -----------------------------------------------------------
                         Flow       Avg       Max       Total
                         Freq      Flow      Flow      Volume
  Outfall Node           Pcnt       LPS       LPS    10^6 ltr
  -----------------------------------------------------------
  CC-1                  27.28    683.00    683.00       3.100
  CC-2                  25.17    683.00    683.00       2.889
  JK-1                  10.64   1000.00   1000.00       1.272
  JK-2                   0.27   1000.00   1000.00       0.048
  WSC                   99.92    362.92    752.80       8.720
  -----------------------------------------------------------
  System                32.66   3728.92   3366.23      16.029
  
  
  ********************
  Link Flow Summary
  ********************
  
  -----------------------------------------------------------------------------
                                 Maximum  Time of Max   Maximum    Max/    Max/
                                  |Flow|   Occurrence   |Veloc|    Full    Full
  Link                 Type          LPS  days hr:min     m/sec    Flow   Depth
  -----------------------------------------------------------------------------
  1                    CONDUIT    752.80     0  02:55      3.08    0.26    0.35
  WS02001211WS02001212 CONDUIT    202.61     0  03:20      0.54    0.15    0.51
  WS02001212WS02001213 CONDUIT    204.23     0  03:35      1.04    0.32    0.36
  WS02001213WS02003059 CONDUIT    210.19     0  03:35      0.47    0.35    0.67
  WS02003059WS02003060 CONDUIT    216.70     0  03:35      0.67    0.14    0.59
  WS02003060WS02003069 CONDUIT    751.08     0  02:53      1.77    0.29    0.40
  WS02003066WSF200     CONDUIT    537.31     0  02:53      2.74    0.09    0.23
  WS02003067WS02003066 CONDUIT    537.26     0  02:52      1.21    0.17    0.42
  WS02003069WS02003072 CONDUIT    751.20     0  02:54      1.51    0.36    0.45
  WS02003072WS02003073 CONDUIT    751.08     0  02:54      1.60    1.62    0.43
  WS02004138WS02004139 CONDUIT    190.84     0  00:29      2.17    0.04    0.33
  WS02004139WS02001211 CONDUIT    193.23     0  03:25      0.54    0.24    0.47
  WS02004401WS02004402 CONDUIT    539.89     0  02:50      0.97    0.65    0.86
  WS02004402WS02004403 CONDUIT    539.74     0  02:50      0.97    0.78    0.88
  WS02004403WS02004404 CONDUIT    539.14     0  02:50      0.92    0.39    0.93
  WS02004404WS02004405 CONDUIT    539.16     0  02:50      1.08    5.28    0.96
  WS02004405WS02004406 CONDUIT    539.39     0  02:50      0.99    1.06    0.96
  WS02004406WS02004407 CONDUIT    538.75     0  02:51      1.04    0.24    0.63
  WS02004407WS02004409 CONDUIT    538.37     0  02:51      1.57    0.19    0.48
  WS02004409WS02004410 CONDUIT    538.00     0  02:51      1.04    0.70    0.67
  WS02004410WS02004411 CONDUIT    537.74     0  02:51      0.95    0.73    0.69
  WS02004411WS02004412 CONDUIT    537.56     0  02:52      0.92    0.76    0.69
  WS02004412WS02004413 CONDUIT    537.55     0  02:52      0.82    0.36    0.78
  WS02004413WS02003067 CONDUIT    537.22     0  02:52      1.11    0.23    0.59
  WS02006109WS02006110 CONDUIT    547.31     0  03:16      1.09    1.05    1.00
  WS02006110WS02006113 CONDUIT    564.98     0  03:21      1.37    0.51    0.78
  WS02006111WS02006112 CONDUIT    543.48     0  02:49      1.82    0.26    0.67
  WS02006112WS02006115 CONDUIT    546.73     0  02:38      0.82    0.32    0.87
  WS02006113WS02006111 CONDUIT    560.46     0  03:12      2.47    0.67    0.46
  WS02006115WS02006116 CONDUIT    542.39     0  02:49      0.97    0.70    0.76
  WS02006116WS02004401 CONDUIT    540.91     0  02:50      0.98    0.75    0.84
  WS02006228WS02006109 CONDUIT    545.77     0  03:21      1.09    2.38    1.00
  WS02006229WS02006228 CONDUIT    546.52     0  03:16      1.15    1.81    1.00
  WS02006230WS02006229 CONDUIT    547.40     0  03:16      1.42   12.18    1.00
  WS02006231WS02006230 CONDUIT    570.69     0  03:20      1.55    8.66    1.00
  WS02006232WS02006231 CONDUIT    568.22     0  03:20      1.48    1.19    1.00
  WS02006234WS02006232 CONDUIT    566.98     0  03:20      1.47    1.15    1.00
  WS02006235WS02006234 CONDUIT    563.06     0  03:20      1.46    5.94    1.00
  WS02006238WS02006235 CONDUIT    419.58     0  03:16      1.57    0.94    1.00
  WS02006239WS02006238 CONDUIT    419.06     0  03:16      1.11    1.34    1.00
  WS02006240WS02006239 CONDUIT    419.53     0  03:16      1.24    1.32    1.00
  WS02006242WS02006240 CONDUIT    417.67     0  03:16      1.12    1.66    1.00
  WS02006243WS02006242 CONDUIT    417.67     0  03:16      1.39    0.89    1.00
  WS02006245WS02006243 CONDUIT    418.10     0  03:16      1.45    1.24    1.00
  WS02006247WS02006245 CONDUIT    418.02     0  03:16      1.44    3.31    1.00
  WS02006248WS02006247 CONDUIT    417.93     0  03:16      1.45    0.91    1.00
  WS02006249WS02006248 CONDUIT    415.66     0  03:16      1.37    2.28    1.00
  WS02006251WS02006249 CONDUIT    458.97     0  00:00      1.99    1.32    1.00
  WS02006252WS02006251 CONDUIT    407.73     0  02:10     25.11    1.50    1.00
  WS02006256WS02006235 CONDUIT    289.22     0  02:00      4.23    3.06    1.00
  WSF200WS02003060     CONDUIT    537.48     0  02:53      1.76    0.12    0.32
  YS02001580YS02001583 CONDUIT    106.98     0  02:08      0.71    0.41    1.00
  YS02001583YS02001586 CONDUIT    167.89     0  02:08      0.73    0.25    1.00
  YS02001586YS02001590 CONDUIT    318.03     0  02:19      1.27    0.56    1.00
  YS02001590YS02001593 CONDUIT    317.96     0  02:19      1.12    2.00    1.00
  YS02001593YS02001596 CONDUIT    317.93     0  02:12      1.73    0.50    1.00
  YS02001596YS02001600 CONDUIT    318.03     0  02:15      1.22    0.62    1.00
  YS02001600YS02001601 CONDUIT    318.00     0  02:15      1.12    0.55    1.00
  YS02001601YS02001602 CONDUIT    521.81     0  02:08      1.85    1.88    1.00
  YS02001602YS02001605 CONDUIT    521.62     0  02:08      1.84   11.04    1.00
  YS02001605YS02001607 CONDUIT    521.32     0  02:08      1.84    2.86    1.00
  YS02001607YS02001610 CONDUIT    529.92     0  02:08      0.67    0.50    1.00
  YS02001610YS02001613 CONDUIT    532.61     0  02:08      0.68    0.61    1.00
  YS02001613YS02001616 CONDUIT    530.78     0  02:08      0.68    0.45    1.00
  YS02001616YS02001619 CONDUIT    500.79     0  02:08      0.66    0.87    1.00
  YS02001619YS02001622 CONDUIT    931.24     0  02:10      1.20    1.37    1.00
  YS02001622YS02001625 CONDUIT    931.97     0  02:08      1.19    0.50    1.00
  YS02001625YS02001629 CONDUIT    931.74     0  02:08      1.20    0.44    1.00
  YS02001629YS02163301 CONDUIT    929.61     0  02:10      1.18    1.14    1.00
  YS02001633YS02163601 CONDUIT   1373.85     0  02:10      1.75    1.44    1.00
  YS02001641YS02001644 CONDUIT   1370.65     0  02:10      1.75    4.43    1.00
  YS02001644YS02001647 CONDUIT   1772.14     0  02:11      2.29    1.04    1.00
  YS02001647YS02001649 CONDUIT   1786.93     0  02:11      2.35    0.94    1.00
  YS02001649YS02001757 CONDUIT   1968.74     0  02:11      2.51    1.19    1.00
  YS02001652YS02001649 CONDUIT    639.66     0  02:14      0.81    0.32    1.00
  YS02001655YS02001652 CONDUIT    636.40     0  02:14      1.32    0.31    1.00
  YS02001658YS02001655 CONDUIT    634.27     0  02:14      1.93    0.27    1.00
  YS02001661YS02001658 CONDUIT    677.80     0  02:13      2.32    0.27    0.98
  YS02001664YS02001661 CONDUIT    740.23     0  02:14      2.30    0.23    0.69
  YS02001745YS02001748 CONDUIT    599.01     0  02:13      2.14    0.23    0.82
  YS02001748YS02001751 CONDUIT    369.98     0  02:14      1.68    0.19    1.00
  YS02001751YS02001754 CONDUIT    369.71     0  02:14      1.45    0.18    1.00
  YS02001754YS02001757 CONDUIT    371.25     0  02:14      0.47    0.15    1.00
  YS02001757CaochengTiaoxuchi CONDUIT   3089.15     0  02:14      3.93    1.34    1.00
  YS02001759YS02001757 CONDUIT   1112.53     0  02:12      1.42    0.79    1.00
  YS02001762YS02001759 CONDUIT    654.36     0  02:12      0.83    0.75    1.00
  YS02001765YS02001762 CONDUIT    649.36     0  02:13      0.83    0.61    1.00
  YS02001767YS02001765 CONDUIT    648.98     0  02:13      0.83    0.82    1.00
  YS02001770YS02001767 CONDUIT    646.69     0  02:13      0.82    2.56    1.00
  YS02001774YS02001770 CONDUIT    443.37     0  02:11      0.56    0.28    1.00
  YS02001779YS02001774 CONDUIT    456.10     0  02:11      0.59    0.23    1.00
  YS02001783YS02001784 CONDUIT   1149.53     0  02:13      2.29    1.58    1.00
  YS02001784YS02001785 CONDUIT   1150.44     0  02:13      2.29    2.68    1.00
  YS02001786YS02001788 CONDUIT   1150.55     0  02:13      2.46    2.22    0.89
  YS02001788YS02001790 CONDUIT   1162.19     0  02:13      2.70    0.86    0.84
  YS02001790YS02001791 CONDUIT   1284.11     0  02:13      3.42    1.40    0.70
  YS02001791YS02001793 CONDUIT   1233.01     0  02:13      6.68    0.53    0.43
  YS02001793JiankangQianchi CONDUIT   1263.81     0  02:13      2.52    0.10    0.64
  YS02001882YS02001884 CONDUIT     55.46     0  02:10      0.10    0.06    1.00
  YS02001884YS02001887 CONDUIT     71.31     0  02:09      0.10    0.09    1.00
  YS02001887YS02001890 CONDUIT    499.16     0  02:13      0.64    0.85    1.00
  YS02001890YS02001895 CONDUIT    491.44     0  02:13      0.63    0.23    1.00
  YS02001895YS02001898 CONDUIT    492.42     0  02:13      0.63    0.85    1.00
  YS02001898YS02001901 CONDUIT    491.05     0  02:13      0.63    0.32    1.00
  YS02001901YS02001904 CONDUIT    492.28     0  02:13      0.63    0.76    1.00
  YS02001904YS02001907 CONDUIT    495.76     0  02:11      0.63    0.17    1.00
  YS02001907YS02006553 CONDUIT    794.95     0  02:22      0.88    0.94    1.00
  YS02001910YS02001907 CONDUIT    979.49     0  02:13      1.25    0.55    1.00
  YS02001915YS02001910 CONDUIT    979.35     0  02:13      1.25    0.49    1.00
  YS02001918YS02001915 CONDUIT    457.09     0  02:13      0.58    0.25    1.00
  YS02001920YS02001918 CONDUIT    455.50     0  02:13      0.64    0.44    1.00
  YS02001923YS02001920 CONDUIT    451.51     0  02:13      0.71    0.20    1.00
  YS02001926YS02001923 CONDUIT    408.84     0  02:13      0.99    0.58    1.00
  YS02001929YS02001926 CONDUIT    405.60     0  02:13      1.16    0.19    1.00
  YS02006553YS02006556 CONDUIT    794.43     0  02:22      1.01    0.68    1.00
  YS02006556YS02006558 CONDUIT    798.06     0  02:22      1.02    0.63    1.00
  YS02006558YS02006561 CONDUIT   1168.76     0  02:12      4.13    2.58    1.00
  YS02006561YS02001783 CONDUIT   1149.53     0  02:13      2.29    0.60    1.00
  YS02163301YS02001633 CONDUIT    929.17     0  02:10      1.18    0.87    1.00
  YS02163601YS02164001 CONDUIT   1372.73     0  02:10      1.75    1.22    1.00
  YS02164001YS02001641 CONDUIT   1372.05     0  02:10      1.75    1.87    1.00
  CC-R1                PUMP       683.00     0  00:00              1.00
  CC-R2                PUMP       683.00     0  00:00              1.00
  CC-S1                PUMP       200.00     0  00:00              1.00
  CC-S2                PUMP       200.00     0  00:00              1.00
  JK-R1                PUMP      1000.00     0  00:00              1.00
  JK-R2                PUMP      1000.00     0  00:00              1.00
  JK-S                 PUMP       300.00     0  00:00              1.00
  XR-1                 PUMP        95.00     0  00:00              1.00
  XR-2                 PUMP        95.00     0  00:00              1.00
  XR-3                 PUMP        95.00     0  00:00              1.00
  XR-4                 PUMP        95.00     0  00:00              1.00
  
  
  ***************************
  Flow Classification Summary
  ***************************
  
  -------------------------------------------------------------------------------------
                      Adjusted    ---------- Fraction of Time in Flow Class ---------- 
                       /Actual         Up    Down  Sub   Sup   Up    Down  Norm  Inlet 
  Conduit               Length    Dry  Dry   Dry   Crit  Crit  Crit  Crit  Ltd   Ctrl  
  -------------------------------------------------------------------------------------
  1                       1.00   0.00  0.00  0.00  0.00  1.00  0.00  0.00  0.12  0.00
  WS02001211WS02001212    1.00   0.00  0.02  0.00  0.98  0.00  0.00  0.00  0.00  0.00
  WS02001212WS02001213    1.00   0.02  0.00  0.00  0.17  0.00  0.80  0.00  0.00  0.00
  WS02001213WS02003059    1.00   0.00  0.01  0.00  0.99  0.00  0.00  0.00  0.00  0.00
  WS02003059WS02003060    1.00   0.00  0.00  0.00  1.00  0.00  0.00  0.00  0.03  0.00
  WS02003060WS02003069    1.00   0.00  0.00  0.00  0.98  0.02  0.00  0.00  0.76  0.00
  WS02003066WSF200        1.00   0.13  0.00  0.00  0.00  0.87  0.00  0.00  0.73  0.00
  WS02003067WS02003066    1.00   0.10  0.02  0.00  0.88  0.00  0.00  0.00  0.00  0.00
  WS02003069WS02003072    1.00   0.00  0.00  0.00  1.00  0.00  0.00  0.00  0.80  0.00
  WS02003072WS02003073    1.00   0.00  0.00  0.00  0.00  0.00  0.00  1.00  0.00  0.00
  WS02004138WS02004139    1.00   0.00  0.00  0.00  0.97  0.01  0.00  0.02  0.98  0.00
  WS02004139WS02001211    1.00   0.00  0.00  0.00  0.99  0.00  0.00  0.00  0.00  0.00
  WS02004401WS02004402    1.00   0.02  0.00  0.00  0.98  0.00  0.00  0.00  0.00  0.00
  WS02004402WS02004403    1.00   0.02  0.00  0.00  0.97  0.00  0.00  0.00  0.00  0.00
  WS02004403WS02004404    1.00   0.00  0.03  0.00  0.97  0.00  0.00  0.00  0.00  0.00
  WS02004404WS02004405    1.00   0.00  0.00  0.00  1.00  0.00  0.00  0.00  0.00  0.00
  WS02004405WS02004406    1.00   0.00  0.00  0.00  1.00  0.00  0.00  0.00  0.00  0.00
  WS02004406WS02004407    1.00   0.00  0.05  0.00  0.95  0.00  0.00  0.00  0.00  0.00
  WS02004407WS02004409    1.00   0.05  0.00  0.00  0.94  0.01  0.00  0.00  0.94  0.00
  WS02004409WS02004410    1.00   0.05  0.00  0.00  0.95  0.00  0.00  0.00  0.03  0.00
  WS02004410WS02004411    1.00   0.05  0.00  0.00  0.95  0.00  0.00  0.00  0.01  0.00
  WS02004411WS02004412    1.00   0.05  0.00  0.00  0.95  0.00  0.00  0.00  0.00  0.00
  WS02004412WS02004413    1.00   0.05  0.00  0.00  0.94  0.00  0.00  0.00  0.01  0.00
  WS02004413WS02003067    1.00   0.06  0.04  0.00  0.00  0.00  0.90  0.00  0.00  0.00
  WS02006109WS02006110    1.00   0.00  0.01  0.00  0.98  0.00  0.01  0.00  0.00  0.00
  WS02006110WS02006113    1.00   0.01  0.01  0.00  0.98  0.00  0.00  0.00  0.00  0.00
  WS02006111WS02006112    1.00   0.02  0.00  0.00  0.98  0.00  0.00  0.00  0.98  0.00
  WS02006112WS02006115    1.00   0.02  0.00  0.00  0.97  0.00  0.00  0.00  0.00  0.00
  WS02006113WS02006111    1.00   0.02  0.00  0.00  0.00  0.98  0.00  0.00  0.07  0.00
  WS02006115WS02006116    1.00   0.02  0.00  0.00  0.97  0.00  0.00  0.01  0.00  0.00
  WS02006116WS02004401    1.00   0.02  0.00  0.00  0.98  0.00  0.00  0.00  0.00  0.00
  WS02006228WS02006109    1.00   0.00  0.00  0.00  1.00  0.00  0.00  0.00  0.00  0.00
  WS02006229WS02006228    1.00   0.00  0.00  0.00  0.99  0.00  0.00  0.01  0.00  0.00
  WS02006230WS02006229    1.00   0.00  0.00  0.00  0.99  0.00  0.00  0.01  0.00  0.00
  WS02006231WS02006230    1.00   0.00  0.00  0.00  0.16  0.00  0.84  0.00  0.00  0.00
  WS02006232WS02006231    1.00   0.00  0.00  0.00  0.99  0.00  0.01  0.00  0.00  0.00
  WS02006234WS02006232    1.00   0.00  0.00  0.00  1.00  0.00  0.00  0.00  0.48  0.00
  WS02006235WS02006234    1.00   0.00  0.00  0.00  0.47  0.00  0.53  0.00  0.00  0.00
  WS02006238WS02006235    1.00   0.00  0.00  0.00  1.00  0.00  0.00  0.00  0.00  0.00
  WS02006239WS02006238    1.00   0.00  0.00  0.00  1.00  0.00  0.00  0.00  0.59  0.00
  WS02006240WS02006239    1.00   0.00  0.00  0.00  0.32  0.00  0.00  0.68  0.01  0.00
  WS02006242WS02006240    1.00   0.00  0.00  0.00  1.00  0.00  0.00  0.00  0.00  0.00
  WS02006243WS02006242    1.00   0.00  0.00  0.00  0.99  0.00  0.00  0.01  0.78  0.00
  WS02006245WS02006243    1.00   0.00  0.00  0.00  0.41  0.00  0.00  0.59  0.00  0.00
  WS02006247WS02006245    1.00   0.00  0.00  0.00  0.98  0.00  0.00  0.01  0.00  0.00
  WS02006248WS02006247    1.00   0.00  0.00  0.00  0.99  0.00  0.00  0.01  0.22  0.00
  WS02006249WS02006248    1.00   0.00  0.00  0.00  0.27  0.00  0.73  0.00  0.00  0.00
  WS02006251WS02006249    1.00   0.00  0.00  0.00  0.99  0.01  0.00  0.00  0.76  0.00
  WS02006252WS02006251    1.00   0.00  0.78  0.00  0.13  0.00  0.09  0.00  0.00  0.00
  WS02006256WS02006235    1.00   0.00  0.00  0.00  1.00  0.00  0.00  0.00  0.00  0.00
  WSF200WS02003060        1.00   0.00  0.13  0.00  0.72  0.15  0.00  0.00  0.71  0.00
  YS02001580YS02001583    1.00   0.26  0.58  0.00  0.15  0.00  0.00  0.00  0.67  0.00
  YS02001583YS02001586    1.00   0.50  0.30  0.00  0.20  0.00  0.00  0.00  0.68  0.00
  YS02001586YS02001590    1.00   0.13  0.00  0.00  0.37  0.04  0.00  0.46  0.35  0.00
  YS02001590YS02001593    1.00   0.13  0.01  0.00  0.07  0.00  0.79  0.00  0.00  0.00
  YS02001593YS02001596    1.00   0.14  0.00  0.00  0.09  0.01  0.00  0.77  0.01  0.00
  YS02001596YS02001600    1.00   0.14  0.00  0.00  0.15  0.01  0.00  0.70  0.05  0.00
  YS02001600YS02001601    1.00   0.13  0.01  0.00  0.86  0.00  0.00  0.00  0.65  0.00
  YS02001601YS02001602    1.00   0.13  0.01  0.00  0.86  0.00  0.00  0.00  0.00  0.00
  YS02001602YS02001605    1.00   0.14  0.00  0.00  0.86  0.00  0.00  0.00  0.00  0.00
  YS02001605YS02001607    1.00   0.14  0.00  0.00  0.86  0.00  0.00  0.00  0.00  0.00
  YS02001607YS02001610    1.00   0.13  0.01  0.00  0.86  0.00  0.00  0.00  0.02  0.00
  YS02001610YS02001613    1.00   0.13  0.00  0.00  0.87  0.00  0.00  0.00  0.01  0.00
  YS02001613YS02001616    1.00   0.13  0.00  0.00  0.87  0.00  0.00  0.00  0.01  0.00
  YS02001616YS02001619    1.00   0.13  0.00  0.00  0.87  0.00  0.00  0.00  0.00  0.00
  YS02001619YS02001622    1.00   0.13  0.00  0.00  0.87  0.00  0.00  0.00  0.35  0.00
  YS02001622YS02001625    1.00   0.13  0.00  0.00  0.87  0.00  0.00  0.00  0.06  0.00
  YS02001625YS02001629    1.00   0.13  0.06  0.00  0.11  0.00  0.70  0.00  0.00  0.00
  YS02001629YS02163301    1.00   0.16  0.01  0.00  0.82  0.00  0.00  0.00  0.00  0.00
  YS02001633YS02163601    1.00   0.00  0.01  0.00  0.99  0.00  0.00  0.00  0.15  0.00
  YS02001641YS02001644    1.00   0.00  0.01  0.00  0.99  0.00  0.00  0.00  0.00  0.00
  YS02001644YS02001647    1.00   0.00  0.19  0.00  0.81  0.00  0.00  0.00  0.00  0.00
  YS02001647YS02001649    1.00   0.00  0.19  0.00  0.53  0.28  0.00  0.00  0.60  0.00
  YS02001649YS02001757    1.00   0.00  0.00  0.00  0.69  0.31  0.00  0.00  0.56  0.00
  YS02001652YS02001649    1.00   0.00  0.00  0.00  0.96  0.04  0.00  0.00  0.80  0.00
  YS02001655YS02001652    1.00   0.00  0.00  0.00  0.12  0.02  0.00  0.86  0.05  0.00
  YS02001658YS02001655    1.00   0.00  0.15  0.00  0.63  0.22  0.00  0.00  0.74  0.00
  YS02001661YS02001658    1.00   0.15  0.00  0.00  0.50  0.36  0.00  0.00  0.75  0.00
  YS02001664YS02001661    1.00   0.13  0.00  0.00  0.79  0.09  0.00  0.00  0.86  0.00
  YS02001745YS02001748    1.00   0.00  0.00  0.00  0.05  0.01  0.00  0.94  0.03  0.00
  YS02001748YS02001751    1.00   0.00  0.00  0.00  0.82  0.18  0.00  0.00  0.80  0.00
  YS02001751YS02001754    1.00   0.00  0.00  0.00  0.10  0.01  0.00  0.90  0.02  0.00
  YS02001754YS02001757    1.00   0.00  0.00  0.00  1.00  0.00  0.00  0.00  0.89  0.00
  YS02001757CaochengTiaoxuchi    1.00   0.00  0.00  0.00  1.00  0.00  0.00  0.00  0.88  0.00
  YS02001759YS02001757    1.00   0.00  0.00  0.00  1.00  0.00  0.00  0.00  0.64  0.00
  YS02001762YS02001759    1.00   0.00  0.00  0.00  1.00  0.00  0.00  0.00  0.05  0.00
  YS02001765YS02001762    1.00   0.00  0.00  0.00  1.00  0.00  0.00  0.00  0.78  0.00
  YS02001767YS02001765    1.00   0.00  0.00  0.00  1.00  0.00  0.00  0.00  0.00  0.00
  YS02001770YS02001767    1.00   0.00  0.00  0.00  1.00  0.00  0.00  0.00  0.00  0.00
  YS02001774YS02001770    1.00   0.00  0.14  0.00  0.59  0.00  0.27  0.00  0.04  0.00
  YS02001779YS02001774    1.00   0.00  0.00  0.00  1.00  0.00  0.00  0.00  0.83  0.00
  YS02001783YS02001784    1.00   0.00  0.20  0.00  0.80  0.00  0.00  0.00  0.58  0.00
  YS02001784YS02001785    1.00   0.00  0.00  0.00  1.00  0.00  0.00  0.00  0.18  0.00
  YS02001786YS02001788    1.00   0.00  0.00  0.00  0.81  0.19  0.00  0.00  0.00  0.00
  YS02001788YS02001790    1.00   0.00  0.00  0.00  0.22  0.78  0.00  0.00  0.85  0.00
  YS02001790YS02001791    1.00   0.00  0.00  0.00  0.01  0.99  0.00  0.00  0.15  0.00
  YS02001791YS02001793    1.00   0.00  0.00  0.00  0.00  1.00  0.00  0.00  0.00  0.00
  YS02001793JiankangQianchi    1.00   0.00  0.00  0.00  0.99  0.01  0.00  0.00  0.97  0.00
  YS02001882YS02001884    1.00   0.16  0.01  0.00  0.83  0.00  0.00  0.00  0.00  0.00
  YS02001884YS02001887    1.00   0.06  0.05  0.00  0.89  0.00  0.00  0.00  0.00  0.00
  YS02001887YS02001890    1.00   0.00  0.00  0.00  0.97  0.00  0.03  0.00  0.00  0.00
  YS02001890YS02001895    1.00   0.00  0.18  0.00  0.82  0.00  0.00  0.00  0.00  0.00
  YS02001895YS02001898    1.00   0.18  0.00  0.00  0.80  0.00  0.02  0.00  0.00  0.00
  YS02001898YS02001901    1.00   0.18  0.00  0.00  0.82  0.00  0.00  0.00  0.01  0.00
  YS02001901YS02001904    1.00   0.18  0.00  0.00  0.82  0.00  0.00  0.00  0.00  0.00
  YS02001904YS02001907    1.00   0.00  0.17  0.00  0.82  0.00  0.00  0.00  0.00  0.00
  YS02001907YS02006553    1.00   0.00  0.02  0.00  0.98  0.00  0.00  0.00  0.00  0.00
  YS02001910YS02001907    1.00   0.00  0.00  0.00  0.97  0.00  0.00  0.03  0.12  0.00
  YS02001915YS02001910    1.00   0.00  0.00  0.00  0.96  0.04  0.00  0.00  0.18  0.00
  YS02001918YS02001915    1.00   0.00  0.01  0.00  0.98  0.02  0.00  0.00  0.79  0.00
  YS02001920YS02001918    1.00   0.00  0.01  0.00  0.99  0.00  0.00  0.00  0.00  0.00
  YS02001923YS02001920    1.00   0.00  0.00  0.00  1.00  0.00  0.00  0.00  0.96  0.00
  YS02001926YS02001923    1.00   0.00  0.07  0.00  0.03  0.00  0.89  0.00  0.00  0.00
  YS02001929YS02001926    1.00   0.00  0.13  0.00  0.87  0.00  0.00  0.00  0.85  0.00
  YS02006553YS02006556    1.00   0.01  0.00  0.00  0.99  0.00  0.00  0.00  0.03  0.00
  YS02006556YS02006558    1.00   0.00  0.00  0.00  1.00  0.00  0.00  0.00  0.00  0.00
  YS02006558YS02006561    1.00   0.20  0.00  0.00  0.03  0.78  0.00  0.00  0.18  0.00
  YS02006561YS02001783    1.00   0.20  0.00  0.00  0.05  0.75  0.00  0.00  0.71  0.00
  YS02163301YS02001633    1.00   0.00  0.16  0.00  0.84  0.00  0.00  0.00  0.00  0.00
  YS02163601YS02164001    1.00   0.00  0.08  0.00  0.92  0.00  0.00  0.00  0.00  0.00
  YS02164001YS02001641    1.00   0.01  0.07  0.00  0.92  0.00  0.00  0.00  0.06  0.00
  
  
  *************************
  Conduit Surcharge Summary
  *************************
  
  ----------------------------------------------------------------------------
                                                           Hours        Hours 
                         --------- Hours Full --------   Above Full   Capacity
  Conduit                Both Ends  Upstream  Dnstream   Normal Flow   Limited
  ----------------------------------------------------------------------------
  WS02003072WS02003073        0.01      0.01      0.01      1.36         0.01
  WS02004404WS02004405        0.01      0.01      0.01      1.61         0.01
  WS02004405WS02004406        0.01      0.01      0.01      0.96         0.01
  WS02006109WS02006110        1.02      1.02      1.24      1.04         0.01
  WS02006110WS02006113        0.01      0.01      1.22      0.01         0.01
  WS02006111WS02006112        0.01      0.01      1.30      0.01         0.01
  WS02006112WS02006115        0.01      0.01      0.97      0.01         0.01
  WS02006228WS02006109        1.20      1.24      1.20      1.39         1.20
  WS02006229WS02006228        1.20      1.20      1.20      1.33         1.19
  WS02006230WS02006229        1.28      1.30      1.28      1.96         1.28
  WS02006231WS02006230        1.03      1.03      1.06      1.77         0.01
  WS02006232WS02006231        1.05      1.05      1.25      1.07         0.01
  WS02006234WS02006232        1.18      1.18      1.25      1.06         1.06
  WS02006235WS02006234        1.16      1.16      1.20      1.65         0.01
  WS02006238WS02006235        1.21      1.21      1.25      0.01         0.01
  WS02006239WS02006238        1.21      1.21      1.22      1.22         1.07
  WS02006240WS02006239        1.19      1.19      1.19      1.22         1.01
  WS02006242WS02006240        1.19      1.19      1.22      1.27         0.01
  WS02006243WS02006242        1.19      1.19      1.21      0.01         0.01
  WS02006245WS02006243        1.19      1.19      1.19      0.20         0.30
  WS02006247WS02006245        1.19      1.19      1.19      1.46         1.19
  WS02006248WS02006247        1.19      1.19      1.19      0.01         0.01
  WS02006249WS02006248        1.18      1.18      1.18      1.44         0.01
  WS02006251WS02006249        1.18      1.18      1.18      1.27         1.16
  WS02006252WS02006251        1.35      1.35      1.35      1.35         0.01
  WS02006256WS02006235        1.70      1.72      3.36      1.29         0.01
  YS02001580YS02001583        0.32      0.32      0.36      0.01         0.01
  YS02001583YS02001586        0.33      0.33      0.43      0.01         0.01
  YS02001586YS02001590        0.44      0.44      0.49      0.01         0.01
  YS02001590YS02001593        0.49      0.49      0.51      0.52         0.01
  YS02001593YS02001596        0.50      0.50      0.59      0.01         0.01
  YS02001596YS02001600        0.62      0.62      0.70      0.01         0.01
  YS02001600YS02001601        0.75      0.75      1.02      0.01         0.01
  YS02001601YS02001602        0.90      0.90      1.06      0.70         0.01
  YS02001602YS02001605        0.86      0.86      0.90      1.86         0.01
  YS02001605YS02001607        0.81      0.86      0.81      0.97         0.81
  YS02001607YS02001610        0.46      0.46      0.48      0.01         0.01
  YS02001610YS02001613        0.46      0.46      0.48      0.01         0.01
  YS02001613YS02001616        0.42      0.42      0.46      0.01         0.01
  YS02001616YS02001619        0.41      0.41      0.42      0.01         0.01
  YS02001619YS02001622        0.41      0.41      0.41      0.51         0.38
  YS02001622YS02001625        0.41      0.41      0.55      0.01         0.01
  YS02001625YS02001629        0.38      0.38      0.55      0.01         0.01
  YS02001629YS02163301        0.55      0.55      0.56      0.13         0.14
  YS02001633YS02163601        0.57      0.57      0.60      0.28         0.28
  YS02001641YS02001644        0.48      0.51      0.48      1.12         0.48
  YS02001644YS02001647        0.32      0.32      0.48      0.03         0.01
  YS02001647YS02001649        0.32      0.32      0.41      0.01         0.01
  YS02001649YS02001757        0.40      0.41      0.44      0.09         0.09
  YS02001652YS02001649        0.28      0.28      0.41      0.01         0.01
  YS02001655YS02001652        0.17      0.17      0.26      0.01         0.01
  YS02001658YS02001655        0.04      0.04      0.17      0.01         0.01
  YS02001661YS02001658        0.01      0.01      0.04      0.01         0.01
  YS02001664YS02001661        0.01      0.01      0.01      0.01         0.01
  YS02001745YS02001748        0.01      0.01      0.01      0.01         0.01
  YS02001748YS02001751        0.02      0.02      0.09      0.01         0.01
  YS02001751YS02001754        0.09      0.09      0.19      0.01         0.01
  YS02001754YS02001757        0.22      0.22      0.44      0.01         0.01
  YS02001757CaochengTiaoxuchi        0.44      0.44      0.95      0.18         0.18
  YS02001759YS02001757        0.37      0.37      0.44      0.01         0.01
  YS02001762YS02001759        0.35      0.35      0.37      0.01         0.01
  YS02001765YS02001762        0.31      0.31      0.35      0.01         0.01
  YS02001767YS02001765        0.29      0.29      0.31      0.01         0.02
  YS02001770YS02001767        0.29      0.29      0.29      0.30         0.20
  YS02001774YS02001770        0.27      0.27      0.33      0.01         0.01
  YS02001779YS02001774        0.19      0.19      0.33      0.01         0.01
  YS02001783YS02001784        0.28      0.30      0.28      0.42         0.28
  YS02001784YS02001785        0.19      0.28      0.19      0.59         0.19
  YS02001786YS02001788        0.01      0.19      0.01      0.50         0.01
  YS02001790YS02001791        0.01      0.01      0.01      0.27         0.01
  YS02001793JiankangQianchi        0.01      0.01      7.68      0.01         0.01
  YS02001882YS02001884        0.26      0.26      0.26      0.01         0.01
  YS02001884YS02001887        0.28      0.28      0.29      0.01         0.01
  YS02001887YS02001890        0.30      0.30      0.31      0.01         0.01
  YS02001890YS02001895        0.25      0.25      0.33      0.01         0.01
  YS02001895YS02001898        0.24      0.24      0.25      0.01         0.01
  YS02001898YS02001901        0.25      0.25      0.28      0.01         0.01
  YS02001901YS02001904        0.27      0.27      0.28      0.01         0.01
  YS02001904YS02001907        0.27      0.27      0.49      0.01         0.01
  YS02001907YS02006553        0.59      0.59      0.65      0.01         0.01
  YS02001910YS02001907        0.32      0.32      0.47      0.01         0.01
  YS02001915YS02001910        0.25      0.25      0.32      0.01         0.01
  YS02001918YS02001915        0.18      0.18      0.25      0.01         0.01
  YS02001920YS02001918        0.18      0.18      0.19      0.01         0.01
  YS02001923YS02001920        0.14      0.14      0.19      0.01         0.01
  YS02001926YS02001923        0.01      0.01      0.01      0.01         0.01
  YS02001929YS02001926        0.01      0.01      0.01      0.01         0.01
  YS02006553YS02006556        0.40      0.40      0.48      0.01         0.01
  YS02006556YS02006558        0.44      0.44      0.50      0.01         0.01
  YS02006558YS02006561        0.21      0.39      0.21      0.55         0.21
  YS02006561YS02001783        0.15      0.15      0.30      0.01         0.01
  YS02163301YS02001633        0.56      0.56      0.59      0.01         0.01
  YS02163601YS02164001        0.52      0.52      0.60      0.06         0.01
  YS02164001YS02001641        0.51      0.52      0.51      0.56         0.46
  
  
  ***************
  Pumping Summary
  ***************
  
  ---------------------------------------------------------------------------------------------------------
                                                  Min       Avg       Max     Total     Power    % Time Off
                        Percent   Number of      Flow      Flow      Flow    Volume     Usage    Pump Curve
  Pump                 Utilized   Start-Ups       LPS       LPS       LPS  10^6 ltr     Kw-hr    Low   High
  ---------------------------------------------------------------------------------------------------------
  CC-R1                   15.75          15      0.00    683.00    683.00     3.099     56.20    0.0   31.6
  CC-R2                   14.68          15      0.00    683.00    683.00     2.888     52.29    0.0   33.9
  CC-S1                   18.87          15      0.00    200.00    200.00     1.087      6.61    0.0    0.0
  CC-S2                   16.85          15      0.00    200.00    200.00     0.970      5.91    0.0    0.0
  JK-R1                    4.41           8      0.00   1000.00   1000.00     1.270     15.24    0.0    0.0
  JK-R2                    0.16           1      0.00   1000.00   1000.00     0.047      0.36    0.0    0.0
  JK-S                    16.18           6      0.00    300.00    300.00     1.398     19.70    0.0    0.0
  XR-1                    97.91           2      0.00     95.00     95.00     2.679      9.60    0.0    0.0
  XR-2                    93.94           2      0.00     95.00     95.00     2.570      8.76    0.0    0.0
  XR-3                     0.00           1      0.00     95.00     95.00     0.000      0.00    0.0    0.0
  XR-4                     0.00           1      0.00     95.00     95.00     0.000      0.00    0.0    0.0
  

  Analysis begun on:  Wed Nov  5 16:30:50 2025
  Analysis ended on:  Wed Nov  5 16:30:52 2025
  Total elapsed time: 00:00:02