
  EPA STORM WATER MANAGEMENT MODEL - VERSION 5.2 (Build 5.2.4)
  PYSWMM TOOLKIT API - VERSION v1.0 (2023-11-27)
  ------------------------------------------------------------

  WARNING 04: minimum elevation drop used for Conduit WS02004404WS02004405
  WARNING 03: negative offset ignored for Link YS02001904YS02001907
  
  ****************
  Analysis Options
  ****************
  Flow Units ............... LPS
  Process Models:
    Rainfall/Runoff ........ YES
    RDII ................... NO
    Snowmelt ............... NO
    Groundwater ............ NO
    Flow Routing ........... YES
    Ponding Allowed ........ NO
    Water Quality .......... NO
  Infiltration Method ...... HORTON
  Flow Routing Method ...... DYNWAVE
  Surcharge Method ......... EXTRAN
  Starting Date ............ 08/28/2015 08:00:00
  Ending Date .............. 08/28/2015 16:00:00
  Antecedent Dry Days ...... 8.0
  Report Time Step ......... 00:01:00
  Wet Time Step ............ 00:01:00
  Dry Time Step ............ 00:01:00
  Routing Time Step ........ 30.00 sec
  Variable Time Step ....... YES
  Maximum Trials ........... 8
  Number of Threads ........ 4
  Head Tolerance ........... 0.001500 m
  
  
  **************************        Volume         Depth
  Runoff Quantity Continuity     hectare-m            mm
  **************************     ---------       -------
  Initial LID Storage ......         0.049         1.488
  Total Precipitation ......         1.331        40.113
  Evaporation Loss .........         0.000         0.000
  Infiltration Loss ........         0.070         2.119
  Surface Runoff ...........         0.955        28.777
  Final Storage ............         0.356        10.725
  Continuity Error (%) .....        -0.047
  
  
  **************************        Volume        Volume
  Flow Routing Continuity        hectare-m      10^6 ltr
  **************************     ---------     ---------
  Dry Weather Inflow .......         0.602         6.020
  Wet Weather Inflow .......         0.954         9.539
  Groundwater Inflow .......         0.000         0.000
  RDII Inflow ..............         0.000         0.000
  External Inflow ..........         0.105         1.045
  External Outflow .........         1.531        15.308
  Flooding Loss ............         0.104         1.042
  Evaporation Loss .........         0.000         0.000
  Exfiltration Loss ........         0.000         0.000
  Initial Stored Volume ....         0.303         3.031
  Final Stored Volume ......         0.334         3.341
  Continuity Error (%) .....        -0.282
  
  
  *************************
  Highest Continuity Errors
  *************************
  Node YS02001583 (-10.45%)
  Node YS02001884 (4.81%)
  Node YS02001774 (1.81%)
  
  
  ***************************
  Time-Step Critical Elements
  ***************************
  Link WS02004404WS02004405 (42.15%)
  Link WS02006238WS02006235 (23.75%)
  Link WS02006252WS02006251 (6.00%)
  Link YS02001791YS02001793 (5.44%)
  Link WS02006235WS02006234 (5.04%)
  
  
  ********************************
  Highest Flow Instability Indexes
  ********************************
  Link WS02006113WS02006111 (27)
  Link WS02006238WS02006235 (19)
  Link WS02006111WS02006112 (16)
  Link WS02006110WS02006113 (11)
  Link WS02006229WS02006228 (11)
  
  
  *********************************
  Most Frequent Nonconverging Nodes
  *********************************
  Node CC-1 (12.75%)
  Node CC-2 (12.75%)
  Node JK-1 (12.75%)
  Node JK-2 (12.75%)
  Node WSC (12.75%)
  
  
  *************************
  Routing Time Step Summary
  *************************
  Minimum Time Step           :     0.01 sec
  Average Time Step           :     3.78 sec
  Maximum Time Step           :     7.04 sec
  % of Time in Steady State   :     0.00
  Average Iterations per Step :     3.16
  % of Steps Not Converging   :    12.75
  Time Step Frequencies       :
     30.000 - 13.228 sec      :     0.00 %
     13.228 -  5.833 sec      :    32.47 %
      5.833 -  2.572 sec      :    28.70 %
      2.572 -  1.134 sec      :    26.35 %
      1.134 -  0.500 sec      :    12.48 %
  
  
  ***************************
  Subcatchment Runoff Summary
  ***************************
  
  ------------------------------------------------------------------------------------------------------------------------------
                            Total      Total      Total      Total     Imperv       Perv      Total       Total     Peak  Runoff
                           Precip      Runon       Evap      Infil     Runoff     Runoff     Runoff      Runoff   Runoff   Coeff
  Subcatchment                 mm         mm         mm         mm         mm         mm         mm    10^6 ltr      LPS
  ------------------------------------------------------------------------------------------------------------------------------
  sub60                     40.11       0.00       0.00       1.29      26.32       2.43      28.75        0.38   260.78   0.717
  sub61                     40.11       0.00       0.00       1.97      26.29       3.61      29.90        0.55   373.95   0.745
  sub62                     40.11       0.00       0.00       0.88      28.02       1.65      29.67        0.81   514.86   0.740
  sub63                     40.11       0.00       0.00       3.58      22.52       5.95      28.47        0.65   404.62   0.710
  sub64                     40.11       0.00       0.00       1.72      25.63       2.97      28.60        0.69   404.34   0.713
  sub65                     40.11       0.00       0.00       1.58      27.66       2.71      30.37        0.84   470.16   0.757
  sub66                     40.11       0.00       0.00       4.13      21.76       5.10      26.85        1.25   575.28   0.669
  sub67                     40.11       0.00       0.00       0.88      28.74       1.71      30.45        0.57   415.39   0.759
  sub68                     40.11       0.00       0.00       1.51      25.38       2.77      28.15        0.77   510.10   0.702
  sub69                     40.11       0.00       0.00       1.34      26.94       3.43      30.37        1.12   619.08   0.757
  sub70                     40.11       0.00       0.00       4.44      21.57       6.73      28.30        0.82   335.19   0.705
  sub71                     40.11       0.00       0.00       0.81      25.45       1.49      26.94        0.70   415.86   0.672
  sub72                     40.11       0.00       0.00       0.77      27.48       1.38      28.86        0.40   208.84   0.720
  

  ***********************
  LID Performance Summary
  ***********************

  --------------------------------------------------------------------------------------------------------------------
                                         Total      Evap     Infil   Surface    Drain    Initial     Final  Continuity
                                        Inflow      Loss      Loss   Outflow   Outflow   Storage   Storage       Error
  Subcatchment      LID Control             mm        mm        mm        mm        mm        mm        mm           %
  --------------------------------------------------------------------------------------------------------------------
  sub60             GreenRoof            40.11      0.00      0.00      0.00      0.00      7.05     47.22       -0.12
  sub61             GreenRoof            40.11      0.00      0.00      0.00      0.00      7.05     47.22       -0.12
  sub62             GreenRoof            40.11      0.00      0.00      0.00      0.00      7.05     47.22       -0.12
  sub63             GreenRoof            40.11      0.00      0.00      0.00      0.00      7.05     47.22       -0.12
  sub64             GreenRoof            40.11      0.00      0.00      0.00      0.00      7.05     47.22       -0.12
  sub65             GreenRoof            40.11      0.00      0.00      0.00      0.00      7.05     47.22       -0.12
  sub66             GreenRoof            40.11      0.00      0.00      0.00      0.00      7.05     47.22       -0.12
  sub67             GreenRoof            40.11      0.00      0.00      0.00      0.00      7.05     47.22       -0.12
  sub68             GreenRoof            40.11      0.00      0.00      0.00      0.00      7.05     47.22       -0.12
  sub69             GreenRoof            40.11      0.00      0.00      0.00      0.00      7.05     47.22       -0.12
  sub70             GreenRoof            40.11      0.00      0.00      0.00      0.00      7.05     47.22       -0.12
  sub71             GreenRoof            40.11      0.00      0.00      0.00      0.00      7.05     47.22       -0.12
  sub72             GreenRoof            40.11      0.00      0.00      0.00      0.00      7.05     47.22       -0.12
  
  ******************
  Node Depth Summary
  ******************
  
  ---------------------------------------------------------------------------------
                                 Average  Maximum  Maximum  Time of Max    Reported
                                   Depth    Depth      HGL   Occurrence   Max Depth
  Node                 Type       Meters   Meters   Meters  days hr:min      Meters
  ---------------------------------------------------------------------------------
  WS02001211           JUNCTION     0.59     0.64     5.48     0  02:35        0.64
  WS02001212           JUNCTION     0.33     0.38     5.45     0  02:37        0.38
  WS02001213           JUNCTION     0.52     0.65     5.41     0  02:37        0.65
  WS02003059           JUNCTION     0.58     0.72     5.40     0  02:36        0.72
  WS02003060           JUNCTION     0.29     0.45     5.38     0  02:35        0.45
  WS02003066           JUNCTION     0.15     0.30     5.85     0  02:35        0.30
  WS02003067           JUNCTION     0.41     0.70     6.02     0  02:35        0.70
  WS02003069           JUNCTION     0.32     0.51     5.10     0  02:34        0.51
  WS02003072           JUNCTION     0.39     0.58     4.95     0  02:34        0.58
  WS02003073           JUNCTION     0.23     0.35     4.41     0  02:35        0.35
  WS02004138           JUNCTION     0.13     0.14     7.39     0  00:29        0.14
  WS02004139           JUNCTION     0.53     0.58     5.49     0  02:36        0.58
  WS02004401           JUNCTION     0.50     0.85     6.85     0  02:30        0.85
  WS02004402           JUNCTION     0.53     0.88     6.84     0  02:31        0.88
  WS02004403           JUNCTION     0.55     0.89     6.82     0  02:31        0.89
  WS02004404           JUNCTION     0.63     0.96     6.81     0  02:31        0.96
  WS02004405           JUNCTION     0.63     0.96     6.81     0  02:31        0.96
  WS02004406           JUNCTION     0.64     0.96     6.79     0  02:31        0.96
  WS02004407           JUNCTION     0.13     0.30     6.61     0  02:31        0.30
  WS02004409           JUNCTION     0.29     0.67     6.44     0  02:32        0.67
  WS02004410           JUNCTION     0.32     0.68     6.40     0  02:32        0.68
  WS02004411           JUNCTION     0.34     0.69     6.37     0  02:32        0.69
  WS02004412           JUNCTION     0.37     0.70     6.34     0  02:32        0.70
  WS02004413           JUNCTION     0.52     0.86     6.33     0  02:33        0.86
  WS02006109           JUNCTION     0.55     1.05     7.67     0  02:52        0.98
  WS02006110           JUNCTION     0.55     1.04     7.62     0  02:52        0.93
  WS02006111           JUNCTION     0.13     0.29     6.99     0  02:30        0.29
  WS02006112           JUNCTION     0.64     1.06     6.94     0  02:30        1.05
  WS02006113           JUNCTION     0.20     0.46     7.35     0  02:54        0.46
  WS02006115           JUNCTION     0.38     0.75     6.89     0  02:30        0.75
  WS02006116           JUNCTION     0.47     0.83     6.87     0  02:30        0.83
  WS02006228           JUNCTION     0.53     1.09     7.74     0  01:58        1.01
  WS02006229           JUNCTION     0.50     1.11     7.81     0  01:58        1.01
  WS02006230           JUNCTION     0.49     1.26     8.00     0  01:58        1.10
  WS02006231           JUNCTION     0.31     0.98     8.10     0  02:51        0.91
  WS02006232           JUNCTION     0.43     1.16     8.20     0  01:58        1.05
  WS02006234           JUNCTION     0.35     1.17     8.33     0  01:58        1.07
  WS02006235           JUNCTION     0.39     1.25     8.41     0  03:00        1.17
  WS02006238           JUNCTION     0.42     1.28     8.43     0  01:58        1.19
  WS02006239           JUNCTION     0.37     1.26     8.47     0  01:58        1.22
  WS02006240           JUNCTION     0.35     1.22     8.51     0  01:58        1.19
  WS02006242           JUNCTION     0.40     1.29     8.56     0  02:52        1.26
  WS02006243           JUNCTION     0.33     1.18     8.60     0  02:52        1.15
  WS02006245           JUNCTION     0.33     1.15     8.63     0  02:52        1.14
  WS02006247           JUNCTION     0.35     1.15     8.65     0  02:19        1.15
  WS02006248           JUNCTION     0.32     1.09     8.68     0  02:19        1.09
  WS02006249           JUNCTION     0.34     1.09     8.69     0  01:57        1.09
  WS02006251           JUNCTION     0.33     1.37     9.04     0  01:57        1.12
  WS02006252           JUNCTION     0.23     1.50     9.74     0  00:00        0.68
  WS02006256           JUNCTION     1.00     2.35     9.28     0  00:00        2.35
  WSF200               JUNCTION     0.12     0.31     5.54     0  02:35        0.31
  YS02001580           JUNCTION     0.09     1.05     9.59     0  01:49        0.77
  YS02001583           JUNCTION     0.13     1.14     9.64     0  01:49        0.81
  YS02001586           JUNCTION     0.20     1.13     9.30     0  01:49        1.13
  YS02001590           JUNCTION     0.30     1.40     9.26     0  01:47        1.37
  YS02001593           JUNCTION     0.24     1.46     9.32     0  01:47        1.44
  YS02001596           JUNCTION     0.32     1.77     9.19     0  01:47        1.73
  YS02001600           JUNCTION     0.39     1.87     9.00     0  01:47        1.87
  YS02001601           JUNCTION     0.58     2.06     8.90     0  01:47        2.06
  YS02001602           JUNCTION     0.49     1.87     8.77     0  01:49        1.87
  YS02001605           JUNCTION     0.45     1.78     8.68     0  01:49        1.77
  YS02001607           JUNCTION     0.44     1.68     8.53     0  01:49        1.64
  YS02001610           JUNCTION     0.48     1.68     8.48     0  01:49        1.68
  YS02001613           JUNCTION     0.44     1.68     8.52     0  01:49        1.64
  YS02001616           JUNCTION     0.37     1.61     8.52     0  01:49        1.57
  YS02001619           JUNCTION     0.35     1.61     8.54     0  01:49        1.56
  YS02001622           JUNCTION     0.34     1.62     8.52     0  01:49        1.54
  YS02001625           JUNCTION     0.59     1.78     8.38     0  01:49        1.78
  YS02001629           JUNCTION     0.46     1.85     8.40     0  01:49        1.81
  YS02001633           JUNCTION     0.53     2.03     8.48     0  01:52        1.85
  YS02001641           JUNCTION     0.50     1.90     8.34     0  01:52        1.66
  YS02001644           JUNCTION     0.49     1.88     8.31     0  01:52        1.62
  YS02001647           JUNCTION     0.27     1.59     8.20     0  01:52        1.33
  YS02001649           JUNCTION     0.31     1.70     8.09     0  01:52        1.44
  YS02001652           JUNCTION     0.20     1.73     8.33     0  01:52        1.26
  YS02001655           JUNCTION     0.14     1.24     8.09     0  01:55        1.02
  YS02001658           JUNCTION     0.09     0.70     7.84     0  01:54        0.69
  YS02001661           JUNCTION     0.13     0.37     7.77     0  01:54        0.37
  YS02001664           JUNCTION     0.06     0.24     8.17     0  01:51        0.24
  YS02001745           JUNCTION     0.05     0.21     7.73     0  01:50        0.21
  YS02001748           JUNCTION     0.08     0.62     7.69     0  01:54        0.60
  YS02001751           JUNCTION     0.11     0.81     7.69     0  01:54        0.79
  YS02001754           JUNCTION     0.16     1.38     7.99     0  01:53        1.03
  YS02001757           JUNCTION     0.31     1.65     7.91     0  01:52        1.40
  YS02001759           JUNCTION     0.26     1.82     8.18     0  01:52        1.40
  YS02001762           JUNCTION     0.25     1.97     8.37     0  01:52        1.44
  YS02001765           JUNCTION     0.23     1.97     8.42     0  01:52        1.45
  YS02001767           JUNCTION     0.23     2.00     8.49     0  01:52        1.50
  YS02001770           JUNCTION     0.24     1.95     8.44     0  01:52        1.61
  YS02001774           JUNCTION     0.30     2.05     8.47     0  01:52        1.70
  YS02001779           JUNCTION     0.14     1.68     8.37     0  01:52        1.46
  YS02001783           JUNCTION     0.25     1.23     7.37     0  01:53        1.20
  YS02001784           JUNCTION     0.26     1.11     7.18     0  01:53        1.10
  YS02001786           JUNCTION     0.22     0.88     6.91     0  01:52        0.87
  YS02001788           JUNCTION     0.16     0.61     6.59     0  01:55        0.61
  YS02001790           JUNCTION     0.19     0.72     6.36     0  01:53        0.71
  YS02001791           JUNCTION     0.12     0.43     5.90     0  01:55        0.42
  YS02001793           JUNCTION     0.06     0.29     5.12     0  01:56        0.27
  YS02001882           JUNCTION     0.30     1.83     8.55     0  01:50        1.57
  YS02001884           JUNCTION     0.39     1.93     8.55     0  01:50        1.67
  YS02001887           JUNCTION     0.46     2.00     8.54     0  01:50        1.75
  YS02001890           JUNCTION     0.49     1.81     8.32     0  01:50        1.77
  YS02001895           JUNCTION     0.27     1.64     8.39     0  01:50        1.53
  YS02001898           JUNCTION     0.28     1.74     8.48     0  01:50        1.54
  YS02001901           JUNCTION     0.39     1.83     8.44     0  01:50        1.66
  YS02001904           JUNCTION     0.37     1.66     8.29     0  01:50        1.63
  YS02001907           JUNCTION     0.68     1.96     8.25     0  01:52        1.96
  YS02001910           JUNCTION     0.48     2.10     8.61     0  01:50        1.79
  YS02001915           JUNCTION     0.30     2.00     8.72     0  01:50        1.63
  YS02001918           JUNCTION     0.15     1.81     8.88     0  01:52        1.32
  YS02001920           JUNCTION     0.23     1.64     8.65     0  01:53        1.41
  YS02001923           JUNCTION     0.11     1.46     8.72     0  01:53        1.18
  YS02001926           JUNCTION     0.14     1.41     8.86     0  01:53        1.01
  YS02001929           JUNCTION     0.07     0.88     8.58     0  01:53        0.77
  YS02006553           JUNCTION     0.68     1.96     8.24     0  01:53        1.95
  YS02006556           JUNCTION     0.65     1.92     8.23     0  01:53        1.90
  YS02006558           JUNCTION     0.70     1.96     8.22     0  01:53        1.93
  YS02006561           JUNCTION     0.15     0.91     7.57     0  01:52        0.86
  YS02163301           JUNCTION     0.48     1.93     8.45     0  01:51        1.82
  YS02163601           JUNCTION     0.56     2.04     8.44     0  01:52        1.80
  YS02164001           JUNCTION     0.49     1.95     8.41     0  01:52        1.68
  CC-1                 OUTFALL      0.00     0.00     0.00     0  00:00        0.00
  CC-2                 OUTFALL      0.00     0.00     0.00     0  00:00        0.00
  JK-1                 OUTFALL      0.00     0.00     0.00     0  00:00        0.00
  JK-2                 OUTFALL      0.00     0.00     0.00     0  00:00        0.00
  WSC                  OUTFALL      0.22     0.35     1.02     0  02:35        0.35
  CC-storage           STORAGE      0.73     1.41     6.91     0  02:09        1.41
  JK-storage           STORAGE      2.70     4.23     5.03     0  02:00        4.20
  XR-storage           STORAGE      7.83     9.26     7.26     0  08:00        9.26
  
  
  *******************
  Node Inflow Summary
  *******************
  
  -------------------------------------------------------------------------------------------------
                                  Maximum  Maximum                  Lateral       Total        Flow
                                  Lateral    Total  Time of Max      Inflow      Inflow     Balance
                                   Inflow   Inflow   Occurrence      Volume      Volume       Error
  Node                 Type           LPS      LPS  days hr:min    10^6 ltr    10^6 ltr     Percent
  -------------------------------------------------------------------------------------------------
  WS02001211           JUNCTION      7.35   200.45     0  02:41       0.212        5.44       0.611
  WS02001212           JUNCTION      0.00   202.65     0  02:41           0        5.41       0.290
  WS02001213           JUNCTION      0.00   204.34     0  02:42           0        5.39       0.332
  WS02003059           JUNCTION      0.00   207.70     0  02:41           0        5.38       0.593
  WS02003060           JUNCTION     16.53   750.97     0  02:35       0.476        8.52       0.168
  WS02003066           JUNCTION      0.00   536.43     0  02:33           0         2.7       0.051
  WS02003067           JUNCTION      0.00   536.44     0  02:33           0         2.7       0.155
  WS02003069           JUNCTION      0.32   750.97     0  02:36     0.00922        8.51       0.178
  WS02003072           JUNCTION      0.00   750.88     0  02:34           0        8.49       0.242
  WS02003073           JUNCTION      1.82   752.69     0  02:35      0.0524        8.52       0.250
  WS02004138           JUNCTION      0.00   380.00     0  00:00           0        5.25       0.053
  WS02004139           JUNCTION      0.32   191.16     0  00:29     0.00924        5.26       0.509
  WS02004401           JUNCTION      0.00   538.58     0  02:11           0         2.8       0.363
  WS02004402           JUNCTION      0.00   538.26     0  02:30           0        2.79       0.370
  WS02004403           JUNCTION      0.00   538.13     0  02:31           0        2.78       0.362
  WS02004404           JUNCTION      0.16   537.70     0  02:31     0.00467        2.77       0.302
  WS02004405           JUNCTION      0.04   537.84     0  02:31      0.0011        2.77       0.452
  WS02004406           JUNCTION      0.00   538.29     0  02:31           0        2.75       0.754
  WS02004407           JUNCTION      0.00   537.47     0  02:31           0        2.73       0.041
  WS02004409           JUNCTION      0.00   537.16     0  02:31           0        2.73       0.098
  WS02004410           JUNCTION      0.00   536.82     0  02:32           0        2.73       0.160
  WS02004411           JUNCTION      0.00   536.69     0  02:32           0        2.73       0.205
  WS02004412           JUNCTION      0.00   536.57     0  02:32           0        2.72       0.275
  WS02004413           JUNCTION      0.00   536.55     0  02:34           0        2.71       0.489
  WS02006109           JUNCTION      1.23   553.34     0  01:58      0.0354        2.84       0.306
  WS02006110           JUNCTION      0.00   554.28     0  01:58           0        2.84       0.224
  WS02006111           JUNCTION      0.00   563.03     0  02:54           0        2.83       0.024
  WS02006112           JUNCTION      0.00   544.00     0  02:30           0        2.83       0.620
  WS02006113           JUNCTION      0.00   564.11     0  01:58           0        2.83       0.061
  WS02006115           JUNCTION      0.00   545.90     0  02:05           0        2.81       0.230
  WS02006116           JUNCTION      0.00   539.92     0  02:10           0         2.8       0.085
  WS02006228           JUNCTION      0.00   551.41     0  01:58           0        2.81       0.125
  WS02006229           JUNCTION      0.00   551.72     0  01:58           0        2.82       0.143
  WS02006230           JUNCTION     10.28   584.28     0  02:52       0.296        2.82       0.141
  WS02006231           JUNCTION      0.00   571.46     0  02:51           0        2.52       0.013
  WS02006232           JUNCTION      0.00   570.24     0  02:51           0        2.53       0.359
  WS02006234           JUNCTION      0.00   566.09     0  02:51           0        2.53      -0.287
  WS02006235           JUNCTION      0.00   561.52     0  02:51           0        2.57       0.319
  WS02006238           JUNCTION      0.00   422.26     0  02:50           0        1.76      -0.160
  WS02006239           JUNCTION      0.00   422.00     0  02:50           0        1.74      -0.049
  WS02006240           JUNCTION      0.00   419.51     0  02:50           0        1.71      -0.086
  WS02006242           JUNCTION      0.00   419.58     0  02:50           0         1.7      -0.164
  WS02006243           JUNCTION      0.00   418.73     0  02:50           0        1.69      -0.300
  WS02006245           JUNCTION      0.00   417.26     0  02:50           0         1.7       0.696
  WS02006247           JUNCTION      0.00   416.51     0  02:50           0         1.7      -0.051
  WS02006248           JUNCTION      0.00   416.33     0  02:55           0         1.7      -0.270
  WS02006249           JUNCTION      0.00   468.97     0  03:05           0        1.88       0.818
  WS02006251           JUNCTION      0.08   406.99     0  01:57     0.00222        1.88       0.086
  WS02006252           JUNCTION      0.00   400.00     0  00:00           0        1.87      -0.642
  WS02006256           JUNCTION      0.00   300.00     0  00:00           0        1.17      -0.491
  WSF200               JUNCTION      0.00   536.44     0  02:35           0        2.69       0.022
  YS02001580           JUNCTION      0.00   169.80     0  01:49           0     0.00476       2.390
  YS02001583           JUNCTION      0.00   264.58     0  01:49           0      0.0152      -9.464
  YS02001586           JUNCTION    335.19   335.24     0  01:53       0.817       0.829       0.211
  YS02001590           JUNCTION      0.00   317.94     0  01:54           0       0.808      -0.038
  YS02001593           JUNCTION      0.00   317.91     0  01:54           0       0.808      -0.011
  YS02001596           JUNCTION      0.00   317.94     0  01:54           0       0.808      -0.016
  YS02001600           JUNCTION      0.00   317.96     0  01:53           0       0.809      -0.007
  YS02001601           JUNCTION    619.08   936.23     0  01:52        1.12        1.93       0.016
  YS02001602           JUNCTION      0.00   580.82     0  01:49           0        1.57       0.014
  YS02001605           JUNCTION      0.00   580.78     0  01:49           0        1.53       0.013
  YS02001607           JUNCTION      0.00   580.73     0  01:49           0        1.53       0.106
  YS02001610           JUNCTION      0.00   553.18     0  01:49           0        1.52       0.127
  YS02001613           JUNCTION      0.00   531.55     0  01:49           0        1.48       0.088
  YS02001616           JUNCTION      0.00   528.21     0  01:49           0        1.48       0.006
  YS02001619           JUNCTION    575.28   956.00     0  01:49        1.25        2.73      -0.012
  YS02001622           JUNCTION      0.00   952.41     0  01:49           0        2.73      -0.014
  YS02001625           JUNCTION      0.00   951.83     0  01:49           0        2.73       0.315
  YS02001629           JUNCTION      0.00   950.71     0  01:49           0        2.69       0.010
  YS02001633           JUNCTION    470.36  1384.63     0  01:51       0.841        3.53       0.085
  YS02001641           JUNCTION      0.00  1384.44     0  01:51           0        3.53       0.072
  YS02001644           JUNCTION    404.38  1789.05     0  01:51       0.688        4.21       0.071
  YS02001647           JUNCTION      0.00  1789.10     0  01:51           0         4.2       0.008
  YS02001649           JUNCTION      0.00  2189.44     0  01:51           0        4.85       0.002
  YS02001652           JUNCTION      0.00   468.94     0  01:51           0       0.649      -0.226
  YS02001655           JUNCTION      0.15   484.46     0  01:55     0.00443        0.65       0.076
  YS02001658           JUNCTION      0.00   404.71     0  01:51           0       0.645       0.001
  YS02001661           JUNCTION      0.00   404.42     0  01:51           0       0.646       0.043
  YS02001664           JUNCTION    404.62   404.62     0  01:51       0.646       0.646      -0.012
  YS02001745           JUNCTION    260.79   260.79     0  01:50       0.377       0.377       0.273
  YS02001748           JUNCTION      0.04   261.14     0  01:50      0.0013       0.378      -0.343
  YS02001751           JUNCTION      0.01   387.25     0  01:53    0.000317       0.381       0.324
  YS02001754           JUNCTION      0.26   395.44     0  01:53     0.00749       0.388      -0.466
  YS02001757           JUNCTION      0.00  2765.83     0  01:54           0        6.62       0.060
  YS02001759           JUNCTION    373.99   914.24     0  01:52       0.549        1.38      -0.016
  YS02001762           JUNCTION      0.00   571.55     0  01:52           0       0.831      -0.003
  YS02001765           JUNCTION      0.00   568.40     0  01:52           0       0.831       0.007
  YS02001767           JUNCTION      0.54   560.62     0  01:52      0.0154       0.831       0.011
  YS02001770           JUNCTION    515.01   561.28     0  01:52       0.817        0.86      -0.017
  YS02001774           JUNCTION      0.00   224.65     0  01:52           0      0.0644       1.840
  YS02001779           JUNCTION      0.01   226.70     0  01:52    0.000144      0.0205      -0.283
  YS02001783           JUNCTION      0.00  1141.37     0  01:54           0        2.46       0.008
  YS02001784           JUNCTION      1.06  1142.51     0  01:54      0.0305        2.49       0.016
  YS02001786           JUNCTION      0.06  1141.97     0  01:54     0.00162        2.49       0.025
  YS02001788           JUNCTION      0.07  1142.83     0  01:54     0.00204        2.49       0.013
  YS02001790           JUNCTION      0.15  1152.25     0  01:54     0.00446        2.49       0.029
  YS02001791           JUNCTION      0.00  1264.01     0  01:53           0        2.49      -0.017
  YS02001793           JUNCTION      0.00  1199.47     0  01:53           0        2.49       0.011
  YS02001882           JUNCTION      0.00    83.30     0  01:50           0      0.0127       4.135
  YS02001884           JUNCTION      0.00   111.60     0  01:50           0      0.0484       5.056
  YS02001887           JUNCTION    415.84   440.69     0  01:50       0.579       0.612       0.689
  YS02001890           JUNCTION      0.00   443.32     0  01:50           0       0.572       0.861
  YS02001895           JUNCTION      0.00   444.04     0  01:50           0       0.567       0.268
  YS02001898           JUNCTION      0.00   432.19     0  01:50           0       0.565       0.019
  YS02001901           JUNCTION      0.00   445.13     0  01:50           0       0.568       0.548
  YS02001904           JUNCTION      0.00   446.11     0  01:50           0       0.574       0.436
  YS02001907           JUNCTION      0.00  1097.07     0  01:54           0        1.75       0.989
  YS02001910           JUNCTION      0.00   777.80     0  01:54           0        1.18       0.588
  YS02001915           JUNCTION    415.88   777.08     0  01:54       0.705        1.22       0.102
  YS02001918           JUNCTION      0.00   414.98     0  01:50           0       0.531       0.017
  YS02001920           JUNCTION      2.87   391.06     0  01:54      0.0827       0.512       0.183
  YS02001923           JUNCTION      0.04   374.16     0  01:52     0.00109        0.42      -0.114
  YS02001926           JUNCTION      0.05   496.68     0  01:52      0.0015       0.407       0.049
  YS02001929           JUNCTION    208.84   260.83     0  01:52       0.397       0.397      -0.010
  YS02006553           JUNCTION      0.00   780.87     0  01:59           0         1.7       0.674
  YS02006556           JUNCTION      0.00   779.87     0  01:59           0        1.71       0.441
  YS02006558           JUNCTION    510.98  1142.57     0  01:54       0.799        2.49       0.128
  YS02006561           JUNCTION      0.00  1141.67     0  01:54           0        2.46      -0.001
  YS02163301           JUNCTION      0.00   918.68     0  01:51           0        2.69       0.047
  YS02163601           JUNCTION      0.11  1384.67     0  01:51     0.00317        3.53       0.131
  YS02164001           JUNCTION      0.00  1384.56     0  01:51           0        3.53       0.056
  CC-1                 OUTFALL       0.00   683.00     0  00:00           0        2.93       0.000
  CC-2                 OUTFALL       0.00   683.00     0  00:00           0         2.6       0.000
  JK-1                 OUTFALL       0.00  1000.00     0  00:00           0        1.23       0.000
  JK-2                 OUTFALL       0.00  1000.00     0  00:00           0      0.0484       0.000
  WSC                  OUTFALL       0.00   752.67     0  02:35           0         8.5       0.000
  CC-storage           STORAGE       0.00  2766.10     0  01:54           0        8.85      -0.307
  JK-storage           STORAGE       0.00  1221.90     0  01:54           0        2.64       0.274
  XR-storage           STORAGE     200.00   200.00     0  00:00        5.76        6.36       0.001
  
  
  **********************
  Node Surcharge Summary
  **********************
  
  Surcharging occurs when water rises above the top of the highest conduit.
  ---------------------------------------------------------------------
                                               Max. Height   Min. Depth
                                   Hours       Above Crown    Below Rim
  Node                 Type      Surcharged         Meters       Meters
  ---------------------------------------------------------------------
  WS02006109           JUNCTION        1.08          0.233        1.587
  WS02006110           JUNCTION        0.62          0.128        1.722
  WS02006112           JUNCTION        0.55          0.057        1.623
  WS02006228           JUNCTION        1.07          0.258        1.942
  WS02006229           JUNCTION        1.09          0.314        2.136
  WS02006230           JUNCTION        0.62          0.176        1.394
  WS02006231           JUNCTION        0.66          0.272        1.258
  WS02006232           JUNCTION        1.14          0.464        1.016
  WS02006234           JUNCTION        0.81          0.449        0.791
  WS02006235           JUNCTION        1.08          0.539        0.751
  WS02006238           JUNCTION        1.11          0.565        0.865
  WS02006239           JUNCTION        1.05          0.523        0.767
  WS02006240           JUNCTION        1.05          0.507        0.883
  WS02006242           JUNCTION        1.06          0.557        0.263
  WS02006243           JUNCTION        1.04          0.469        0.301
  WS02006245           JUNCTION        1.04          0.438        0.412
  WS02006247           JUNCTION        1.04          0.442        0.318
  WS02006248           JUNCTION        1.03          0.373        0.007
  WS02006249           JUNCTION        1.03          0.390        0.000
  WS02006251           JUNCTION        0.68          0.340        0.840
  WS02006252           JUNCTION        1.26          1.100        0.000
  WS02006256           JUNCTION        3.72          2.050        0.000
  YS02001580           JUNCTION        0.24          0.450        0.000
  YS02001583           JUNCTION        0.25          0.500        0.000
  YS02001586           JUNCTION        0.38          0.510        0.000
  YS02001590           JUNCTION        0.44          0.750        0.000
  YS02001593           JUNCTION        0.44          0.840        0.000
  YS02001596           JUNCTION        0.52          1.043        0.027
  YS02001600           JUNCTION        0.62          1.190        0.000
  YS02001601           JUNCTION        0.92          1.440        0.000
  YS02001602           JUNCTION        0.81          1.270        0.000
  YS02001605           JUNCTION        0.76          1.180        0.000
  YS02001607           JUNCTION        0.40          0.680        0.000
  YS02001610           JUNCTION        0.41          0.680        0.000
  YS02001613           JUNCTION        0.39          0.681        0.019
  YS02001616           JUNCTION        0.36          0.610        0.000
  YS02001619           JUNCTION        0.35          0.610        0.000
  YS02001622           JUNCTION        0.35          0.620        0.000
  YS02001625           JUNCTION        0.49          0.780        0.000
  YS02001629           JUNCTION        0.30          0.470        0.000
  YS02001633           JUNCTION        0.50          1.009        0.051
  YS02001641           JUNCTION        0.44          0.898        0.202
  YS02001644           JUNCTION        0.42          0.877        0.043
  YS02001647           JUNCTION        0.24          0.593        0.307
  YS02001649           JUNCTION        0.33          0.700        0.350
  YS02001652           JUNCTION        0.15          0.703        0.427
  YS02001655           JUNCTION        0.01          0.244        0.956
  YS02001754           JUNCTION        0.01          0.332        0.818
  YS02001757           JUNCTION        0.36          0.650        0.560
  YS02001759           JUNCTION        0.28          0.819        0.391
  YS02001762           JUNCTION        0.26          0.975        0.175
  YS02001765           JUNCTION        0.21          0.969        0.131
  YS02001767           JUNCTION        0.18          1.002        0.028
  YS02001770           JUNCTION        0.16          0.920        0.000
  YS02001774           JUNCTION        0.24          1.050        0.000
  YS02001779           JUNCTION        0.03          0.680        0.000
  YS02001783           JUNCTION        0.26          0.433        1.167
  YS02001784           JUNCTION        0.24          0.311        1.179
  YS02001786           JUNCTION        0.14          0.076        1.354
  YS02001882           JUNCTION        0.21          0.830        0.000
  YS02001884           JUNCTION        0.22          0.870        0.000
  YS02001887           JUNCTION        0.25          0.950        0.000
  YS02001890           JUNCTION        0.26          0.760        0.000
  YS02001895           JUNCTION        0.20          0.639        0.111
  YS02001898           JUNCTION        0.20          0.713        0.027
  YS02001901           JUNCTION        0.24          0.829        0.041
  YS02001904           JUNCTION        0.23          0.662        0.188
  YS02001907           JUNCTION        0.41          0.950        0.000
  YS02001910           JUNCTION        0.29          1.100        0.000
  YS02001915           JUNCTION        0.21          1.000        0.000
  YS02001918           JUNCTION        0.12          0.810        0.000
  YS02001920           JUNCTION        0.14          0.643        0.497
  YS02001923           JUNCTION        0.01          0.246        0.574
  YS02001926           JUNCTION        0.01          0.413        0.487
  YS02006553           JUNCTION        0.42          0.959        0.231
  YS02006556           JUNCTION        0.34          0.882        0.468
  YS02006558           JUNCTION        0.34          0.855        0.545
  YS02006561           JUNCTION        0.08          0.105        1.045
  YS02163301           JUNCTION        0.48          0.933        0.097
  YS02163601           JUNCTION        0.52          1.039        0.041
  YS02164001           JUNCTION        0.45          0.950        0.150
  
  
  *********************
  Node Flooding Summary
  *********************
  
  Flooding refers to all water that overflows a node, whether it ponds or not.
  --------------------------------------------------------------------------
                                                             Total   Maximum
                                 Maximum   Time of Max       Flood    Ponded
                        Hours       Rate    Occurrence      Volume     Depth
  Node                 Flooded       LPS   days hr:min    10^6 ltr    Meters
  --------------------------------------------------------------------------
  WS02006249              0.67     97.96      0  01:57       0.167     0.000
  WS02006252              0.01    260.21      0  03:00       0.001     0.000
  WS02006256              1.08    293.19      0  00:00       0.340     0.000
  YS02001580              0.01    108.95      0  01:49       0.001     0.000
  YS02001583              0.01    234.91      0  01:49       0.000     0.000
  YS02001586              0.13    128.91      0  01:49       0.008     0.000
  YS02001590              0.01     46.92      0  01:47       0.000     0.000
  YS02001593              0.01     66.50      0  01:47       0.000     0.000
  YS02001600              0.01     11.40      0  01:48       0.000     0.000
  YS02001601              0.32    538.41      0  01:52       0.367     0.000
  YS02001602              0.22     61.91      0  01:59       0.039     0.000
  YS02001605              0.01      4.38      0  01:49       0.000     0.000
  YS02001607              0.01     84.69      0  01:49       0.000     0.000
  YS02001610              0.15    109.04      0  01:54       0.041     0.000
  YS02001616              0.01    176.41      0  01:49       0.000     0.000
  YS02001619              0.01    247.72      0  01:49       0.001     0.000
  YS02001622              0.01    260.49      0  01:49       0.001     0.000
  YS02001625              0.12    147.84      0  01:54       0.033     0.000
  YS02001629              0.01    361.80      0  01:49       0.002     0.000
  YS02001770              0.01    101.63      0  01:52       0.000     0.000
  YS02001774              0.01      4.76      0  01:52       0.000     0.000
  YS02001779              0.01    147.02      0  01:52       0.000     0.000
  YS02001882              0.01     64.47      0  01:50       0.000     0.000
  YS02001884              0.01     16.35      0  01:50       0.000     0.000
  YS02001887              0.01     13.88      0  01:50       0.000     0.000
  YS02001890              0.01     21.35      0  01:50       0.000     0.000
  YS02001907              0.05    393.17      0  01:54       0.041     0.000
  YS02001910              0.01     45.75      0  01:50       0.000     0.000
  YS02001915              0.01    154.95      0  01:50       0.000     0.000
  YS02001918              0.01     77.58      0  01:52       0.000     0.000
  
  
  **********************
  Storage Volume Summary
  **********************
  
  ------------------------------------------------------------------------------------------------
                         Average    Avg   Evap  Exfil     Maximum    Max    Time of Max    Maximum
                          Volume   Pcnt   Pcnt   Pcnt      Volume   Pcnt     Occurrence    Outflow
  Storage Unit           1000 m³   Full   Loss   Loss     1000 m³   Full    days hr:min        LPS
  ------------------------------------------------------------------------------------------------
  CC-storage               2.021   31.5    0.0    0.0       3.928   61.3       0  02:09    1783.53
  JK-storage               0.135   46.5    0.0    0.0       0.212   72.9       0  02:00    2300.00
  XR-storage               0.939   65.2    0.0    0.0       1.111   77.2       0  08:00     380.00
  
  
  ***********************
  Outfall Loading Summary
  ***********************
  
  -----------------------------------------------------------
                         Flow       Avg       Max       Total
                         Freq      Flow      Flow      Volume
  Outfall Node           Pcnt       LPS       LPS    10^6 ltr
  -----------------------------------------------------------
  CC-1                  27.06    683.00    683.00       2.927
  CC-2                  23.21    683.00    683.00       2.602
  JK-1                  10.99   1000.00   1000.00       1.228
  JK-2                   0.28   1000.00   1000.00       0.048
  WSC                   99.92    356.61    752.67       8.502
  -----------------------------------------------------------
  System                32.29   3722.61   3366.23      15.308
  
  
  ********************
  Link Flow Summary
  ********************
  
  -----------------------------------------------------------------------------
                                 Maximum  Time of Max   Maximum    Max/    Max/
                                  |Flow|   Occurrence   |Veloc|    Full    Full
  Link                 Type          LPS  days hr:min     m/sec    Flow   Depth
  -----------------------------------------------------------------------------
  1                    CONDUIT    752.67     0  02:35      3.08    0.26    0.35
  WS02001211WS02001212 CONDUIT    202.65     0  02:41      0.54    0.15    0.51
  WS02001212WS02001213 CONDUIT    204.34     0  02:42      1.04    0.32    0.36
  WS02001213WS02003059 CONDUIT    207.70     0  02:41      0.47    0.34    0.67
  WS02003059WS02003060 CONDUIT    212.18     0  02:39      0.67    0.14    0.58
  WS02003060WS02003069 CONDUIT    750.65     0  02:36      1.77    0.29    0.40
  WS02003066WSF200     CONDUIT    536.44     0  02:35      2.74    0.09    0.23
  WS02003067WS02003066 CONDUIT    536.43     0  02:33      1.21    0.17    0.42
  WS02003069WS02003072 CONDUIT    750.88     0  02:34      1.51    0.36    0.45
  WS02003072WS02003073 CONDUIT    750.87     0  02:35      1.60    1.62    0.43
  WS02004138WS02004139 CONDUIT    190.84     0  00:29      2.17    0.04    0.33
  WS02004139WS02001211 CONDUIT    193.10     0  02:41      0.54    0.24    0.47
  WS02004401WS02004402 CONDUIT    538.26     0  02:30      0.97    0.65    0.86
  WS02004402WS02004403 CONDUIT    538.13     0  02:31      0.97    0.77    0.88
  WS02004403WS02004404 CONDUIT    537.54     0  02:31      0.92    0.39    0.93
  WS02004404WS02004405 CONDUIT    537.81     0  02:31      1.08    5.27    0.96
  WS02004405WS02004406 CONDUIT    538.29     0  02:31      0.99    1.06    0.96
  WS02004406WS02004407 CONDUIT    537.47     0  02:31      1.04    0.24    0.63
  WS02004407WS02004409 CONDUIT    537.16     0  02:31      1.58    0.19    0.48
  WS02004409WS02004410 CONDUIT    536.82     0  02:32      1.05    0.69    0.67
  WS02004410WS02004411 CONDUIT    536.69     0  02:32      1.02    0.73    0.69
  WS02004411WS02004412 CONDUIT    536.57     0  02:32      0.99    0.76    0.69
  WS02004412WS02004413 CONDUIT    536.55     0  02:34      0.82    0.36    0.78
  WS02004413WS02003067 CONDUIT    536.44     0  02:33      1.11    0.23    0.59
  WS02006109WS02006110 CONDUIT    554.28     0  01:58      1.10    1.07    1.00
  WS02006110WS02006113 CONDUIT    564.11     0  01:58      1.36    0.51    0.79
  WS02006111WS02006112 CONDUIT    544.00     0  02:30      1.82    0.26    0.67
  WS02006112WS02006115 CONDUIT    545.90     0  02:05      0.87    0.32    0.87
  WS02006113WS02006111 CONDUIT    563.03     0  02:54      2.47    0.67    0.46
  WS02006115WS02006116 CONDUIT    539.92     0  02:10      1.15    0.69    0.76
  WS02006116WS02004401 CONDUIT    538.58     0  02:11      0.99    0.74    0.84
  WS02006228WS02006109 CONDUIT    552.11     0  01:58      1.10    2.41    1.00
  WS02006229WS02006228 CONDUIT    551.41     0  01:58      1.15    1.83    1.00
  WS02006230WS02006229 CONDUIT    551.72     0  01:58      1.43   12.28    1.00
  WS02006231WS02006230 CONDUIT    574.00     0  02:52      1.55    8.71    1.00
  WS02006232WS02006231 CONDUIT    571.46     0  02:51      1.49    1.20    1.00
  WS02006234WS02006232 CONDUIT    570.24     0  02:51      1.48    1.15    1.00
  WS02006235WS02006234 CONDUIT    566.09     0  02:51      1.47    5.97    1.00
  WS02006238WS02006235 CONDUIT    424.09     0  02:50      1.57    0.95    1.00
  WS02006239WS02006238 CONDUIT    422.26     0  02:50      1.11    1.35    1.00
  WS02006240WS02006239 CONDUIT    422.00     0  02:50      1.24    1.33    1.00
  WS02006242WS02006240 CONDUIT    419.51     0  02:50      1.12    1.67    1.00
  WS02006243WS02006242 CONDUIT    419.58     0  02:50      1.39    0.90    1.00
  WS02006245WS02006243 CONDUIT    418.73     0  02:50      1.45    1.24    1.00
  WS02006247WS02006245 CONDUIT    417.26     0  02:50      1.44    3.31    1.00
  WS02006248WS02006247 CONDUIT    416.51     0  02:50      1.45    0.91    1.00
  WS02006249WS02006248 CONDUIT    416.33     0  02:55      1.37    2.28    1.00
  WS02006251WS02006249 CONDUIT    468.97     0  03:05      1.99    1.35    1.00
  WS02006252WS02006251 CONDUIT    406.91     0  01:57     25.30    1.49    1.00
  WS02006256WS02006235 CONDUIT    289.22     0  01:50      4.23    3.06    1.00
  WSF200WS02003060     CONDUIT    536.66     0  02:35      1.76    0.12    0.32
  YS02001580YS02001583 CONDUIT    169.80     0  01:49      0.89    0.66    1.00
  YS02001583YS02001586 CONDUIT    208.86     0  01:49      0.95    0.32    1.00
  YS02001586YS02001590 CONDUIT    317.94     0  01:54      1.31    0.56    1.00
  YS02001590YS02001593 CONDUIT    317.91     0  01:54      1.12    2.00    1.00
  YS02001593YS02001596 CONDUIT    317.94     0  01:54      1.72    0.50    1.00
  YS02001596YS02001600 CONDUIT    317.96     0  01:53      1.20    0.62    1.00
  YS02001600YS02001601 CONDUIT    317.78     0  01:53      1.12    0.55    1.00
  YS02001601YS02001602 CONDUIT    580.82     0  01:49      2.05    2.10    1.00
  YS02001602YS02001605 CONDUIT    580.78     0  01:49      2.05   12.29    1.00
  YS02001605YS02001607 CONDUIT    580.73     0  01:49      2.05    3.18    1.00
  YS02001607YS02001610 CONDUIT    553.18     0  01:49      0.73    0.53    1.00
  YS02001610YS02001613 CONDUIT    531.55     0  01:49      0.69    0.61    1.00
  YS02001613YS02001616 CONDUIT    528.21     0  01:49      0.67    0.45    1.00
  YS02001616YS02001619 CONDUIT    486.58     0  02:08      0.66    0.84    1.00
  YS02001619YS02001622 CONDUIT    952.41     0  01:49      1.31    1.40    1.00
  YS02001622YS02001625 CONDUIT    951.83     0  01:49      1.21    0.51    1.00
  YS02001625YS02001629 CONDUIT    950.71     0  01:49      1.21    0.45    1.00
  YS02001629YS02163301 CONDUIT    918.68     0  01:51      1.17    1.13    1.00
  YS02001633YS02163601 CONDUIT   1384.56     0  01:51      1.76    1.45    1.00
  YS02001641YS02001644 CONDUIT   1384.71     0  01:51      1.76    4.48    1.00
  YS02001644YS02001647 CONDUIT   1789.10     0  01:51      2.32    1.05    1.00
  YS02001647YS02001649 CONDUIT   1790.13     0  01:51      2.35    0.95    1.00
  YS02001649YS02001757 CONDUIT   2194.03     0  01:51      2.79    1.33    1.00
  YS02001652YS02001649 CONDUIT    454.95     0  01:51      0.82    0.23    1.00
  YS02001655YS02001652 CONDUIT    468.94     0  01:51      1.55    0.23    1.00
  YS02001658YS02001655 CONDUIT    484.31     0  01:55      2.07    0.21    0.83
  YS02001661YS02001658 CONDUIT    404.71     0  01:51      2.29    0.16    0.49
  YS02001664YS02001661 CONDUIT    404.42     0  01:51      2.14    0.13    0.29
  YS02001745YS02001748 CONDUIT    261.10     0  01:50      2.12    0.10    0.36
  YS02001748YS02001751 CONDUIT    314.44     0  01:53      1.78    0.16    0.70
  YS02001751YS02001754 CONDUIT    395.18     0  01:53      1.59    0.19    0.90
  YS02001754YS02001757 CONDUIT    250.23     0  01:55      0.59    0.10    1.00
  YS02001757CaochengTiaoxuchi CONDUIT   2766.10     0  01:54      3.52    1.20    1.00
  YS02001759YS02001757 CONDUIT    914.66     0  01:52      1.16    0.65    1.00
  YS02001762YS02001759 CONDUIT    572.34     0  01:52      0.73    0.66    1.00
  YS02001765YS02001762 CONDUIT    571.55     0  01:52      0.73    0.54    1.00
  YS02001767YS02001765 CONDUIT    568.40     0  01:52      0.87    0.71    1.00
  YS02001770YS02001767 CONDUIT    560.08     0  01:52      0.92    2.22    1.00
  YS02001774YS02001770 CONDUIT    224.65     0  01:52      0.29    0.14    1.00
  YS02001779YS02001774 CONDUIT    226.69     0  01:52      0.29    0.11    1.00
  YS02001783YS02001784 CONDUIT   1141.45     0  01:54      2.27    1.57    1.00
  YS02001784YS02001785 CONDUIT   1141.91     0  01:54      2.27    2.66    1.00
  YS02001786YS02001788 CONDUIT   1142.76     0  01:54      2.45    2.20    0.88
  YS02001788YS02001790 CONDUIT   1152.09     0  01:54      2.69    0.85    0.83
  YS02001790YS02001791 CONDUIT   1264.01     0  01:53      3.40    1.38    0.70
  YS02001791YS02001793 CONDUIT   1199.47     0  01:53      6.67    0.52    0.44
  YS02001793JiankangQianchi CONDUIT   1221.90     0  01:54      2.46    0.10    0.65
  YS02001882YS02001884 CONDUIT     83.30     0  01:50      0.11    0.10    1.00
  YS02001884YS02001887 CONDUIT    111.60     0  01:50      0.14    0.15    1.00
  YS02001887YS02001890 CONDUIT    443.32     0  01:50      0.56    0.76    1.00
  YS02001890YS02001895 CONDUIT    444.04     0  01:50      0.57    0.21    1.00
  YS02001895YS02001898 CONDUIT    432.19     0  01:50      0.55    0.75    1.00
  YS02001898YS02001901 CONDUIT    445.13     0  01:50      0.57    0.29    1.00
  YS02001901YS02001904 CONDUIT    446.11     0  01:50      0.57    0.69    1.00
  YS02001904YS02001907 CONDUIT    447.01     0  01:50      0.57    0.16    1.00
  YS02001907YS02006553 CONDUIT    780.87     0  01:59      0.87    0.92    1.00
  YS02001910YS02001907 CONDUIT    777.65     0  01:54      0.99    0.44    1.00
  YS02001915YS02001910 CONDUIT    777.80     0  01:54      0.99    0.39    1.00
  YS02001918YS02001915 CONDUIT    393.28     0  01:54      0.50    0.22    1.00
  YS02001920YS02001918 CONDUIT    391.53     0  01:54      0.67    0.38    1.00
  YS02001923YS02001920 CONDUIT    388.19     0  01:54      0.81    0.17    1.00
  YS02001926YS02001923 CONDUIT    347.56     0  01:54      0.98    0.50    1.00
  YS02001929YS02001926 CONDUIT    355.10     0  01:53      1.11    0.17    0.93
  YS02006553YS02006556 CONDUIT    779.87     0  01:59      0.99    0.67    1.00
  YS02006556YS02006558 CONDUIT    781.90     0  01:59      1.00    0.62    1.00
  YS02006558YS02006561 CONDUIT   1141.67     0  01:54      4.04    2.52    1.00
  YS02006561YS02001783 CONDUIT   1141.37     0  01:54      2.28    0.59    1.00
  YS02163301YS02001633 CONDUIT    918.47     0  01:51      1.17    0.86    1.00
  YS02163601YS02164001 CONDUIT   1384.56     0  01:51      1.76    1.23    1.00
  YS02164001YS02001641 CONDUIT   1384.44     0  01:51      1.76    1.89    1.00
  CC-R1                PUMP       683.00     0  00:00              1.00
  CC-R2                PUMP       683.00     0  00:00              1.00
  CC-S1                PUMP       200.00     0  00:00              1.00
  CC-S2                PUMP       200.00     0  00:00              1.00
  JK-R1                PUMP      1000.00     0  00:00              1.00
  JK-R2                PUMP      1000.00     0  00:00              1.00
  JK-S                 PUMP       300.00     0  00:00              1.00
  XR-1                 PUMP        95.00     0  00:00              1.00
  XR-2                 PUMP        95.00     0  00:00              1.00
  XR-3                 PUMP        95.00     0  00:00              1.00
  XR-4                 PUMP        95.00     0  00:00              1.00
  
  
  ***************************
  Flow Classification Summary
  ***************************
  
  -------------------------------------------------------------------------------------
                      Adjusted    ---------- Fraction of Time in Flow Class ---------- 
                       /Actual         Up    Down  Sub   Sup   Up    Down  Norm  Inlet 
  Conduit               Length    Dry  Dry   Dry   Crit  Crit  Crit  Crit  Ltd   Ctrl  
  -------------------------------------------------------------------------------------
  1                       1.00   0.00  0.00  0.00  0.00  1.00  0.00  0.00  0.16  0.00
  WS02001211WS02001212    1.00   0.00  0.02  0.00  0.98  0.00  0.00  0.00  0.00  0.00
  WS02001212WS02001213    1.00   0.02  0.00  0.00  0.17  0.00  0.80  0.00  0.00  0.00
  WS02001213WS02003059    1.00   0.00  0.01  0.00  0.99  0.00  0.00  0.00  0.00  0.00
  WS02003059WS02003060    1.00   0.00  0.00  0.00  1.00  0.00  0.00  0.00  0.03  0.00
  WS02003060WS02003069    1.00   0.00  0.00  0.00  0.98  0.02  0.00  0.00  0.76  0.00
  WS02003066WSF200        1.00   0.13  0.00  0.00  0.00  0.87  0.00  0.00  0.79  0.00
  WS02003067WS02003066    1.00   0.10  0.02  0.00  0.88  0.00  0.00  0.00  0.00  0.00
  WS02003069WS02003072    1.00   0.00  0.00  0.00  1.00  0.00  0.00  0.00  0.81  0.00
  WS02003072WS02003073    1.00   0.00  0.00  0.00  0.00  0.00  0.00  1.00  0.00  0.00
  WS02004138WS02004139    1.00   0.00  0.00  0.00  0.97  0.01  0.00  0.02  0.98  0.00
  WS02004139WS02001211    1.00   0.00  0.00  0.00  0.99  0.00  0.00  0.00  0.00  0.00
  WS02004401WS02004402    1.00   0.02  0.00  0.00  0.98  0.00  0.00  0.00  0.00  0.00
  WS02004402WS02004403    1.00   0.02  0.00  0.00  0.97  0.00  0.00  0.00  0.00  0.00
  WS02004403WS02004404    1.00   0.00  0.03  0.00  0.97  0.00  0.00  0.00  0.00  0.00
  WS02004404WS02004405    1.00   0.00  0.00  0.00  1.00  0.00  0.00  0.00  0.00  0.00
  WS02004405WS02004406    1.00   0.00  0.00  0.00  1.00  0.00  0.00  0.00  0.00  0.00
  WS02004406WS02004407    1.00   0.00  0.05  0.00  0.95  0.00  0.00  0.00  0.00  0.00
  WS02004407WS02004409    1.00   0.05  0.00  0.00  0.94  0.01  0.00  0.00  0.94  0.00
  WS02004409WS02004410    1.00   0.05  0.00  0.00  0.95  0.00  0.00  0.00  0.03  0.00
  WS02004410WS02004411    1.00   0.05  0.00  0.00  0.95  0.00  0.00  0.00  0.01  0.00
  WS02004411WS02004412    1.00   0.05  0.00  0.00  0.95  0.00  0.00  0.00  0.00  0.00
  WS02004412WS02004413    1.00   0.05  0.00  0.00  0.94  0.00  0.00  0.00  0.01  0.00
  WS02004413WS02003067    1.00   0.06  0.04  0.00  0.00  0.00  0.90  0.00  0.00  0.00
  WS02006109WS02006110    1.00   0.00  0.01  0.00  0.98  0.00  0.01  0.00  0.00  0.00
  WS02006110WS02006113    1.00   0.01  0.01  0.00  0.98  0.00  0.00  0.00  0.00  0.00
  WS02006111WS02006112    1.00   0.02  0.00  0.00  0.98  0.00  0.00  0.00  0.98  0.00
  WS02006112WS02006115    1.00   0.02  0.00  0.00  0.97  0.00  0.00  0.00  0.00  0.00
  WS02006113WS02006111    1.00   0.02  0.00  0.00  0.00  0.98  0.00  0.00  0.08  0.00
  WS02006115WS02006116    1.00   0.02  0.00  0.00  0.97  0.00  0.00  0.01  0.00  0.00
  WS02006116WS02004401    1.00   0.02  0.00  0.00  0.98  0.00  0.00  0.00  0.00  0.00
  WS02006228WS02006109    1.00   0.00  0.00  0.00  1.00  0.00  0.00  0.00  0.00  0.00
  WS02006229WS02006228    1.00   0.00  0.00  0.00  0.99  0.00  0.00  0.01  0.00  0.00
  WS02006230WS02006229    1.00   0.00  0.00  0.00  0.99  0.00  0.00  0.01  0.01  0.00
  WS02006231WS02006230    1.00   0.00  0.00  0.00  0.16  0.00  0.84  0.00  0.00  0.00
  WS02006232WS02006231    1.00   0.00  0.00  0.00  0.99  0.00  0.01  0.00  0.00  0.00
  WS02006234WS02006232    1.00   0.00  0.00  0.00  1.00  0.00  0.00  0.00  0.39  0.00
  WS02006235WS02006234    1.00   0.00  0.00  0.00  0.55  0.00  0.45  0.00  0.00  0.00
  WS02006238WS02006235    1.00   0.00  0.00  0.00  1.00  0.00  0.00  0.00  0.00  0.00
  WS02006239WS02006238    1.00   0.00  0.00  0.00  1.00  0.00  0.00  0.00  0.54  0.00
  WS02006240WS02006239    1.00   0.00  0.00  0.00  0.34  0.00  0.00  0.65  0.01  0.00
  WS02006242WS02006240    1.00   0.00  0.00  0.00  1.00  0.00  0.00  0.00  0.00  0.00
  WS02006243WS02006242    1.00   0.00  0.00  0.00  0.99  0.00  0.00  0.01  0.78  0.00
  WS02006245WS02006243    1.00   0.00  0.00  0.00  0.41  0.00  0.00  0.59  0.00  0.00
  WS02006247WS02006245    1.00   0.00  0.00  0.00  0.98  0.00  0.00  0.01  0.00  0.00
  WS02006248WS02006247    1.00   0.00  0.00  0.00  0.99  0.00  0.00  0.01  0.23  0.00
  WS02006249WS02006248    1.00   0.00  0.00  0.00  0.27  0.00  0.73  0.00  0.00  0.00
  WS02006251WS02006249    1.00   0.00  0.00  0.00  0.99  0.01  0.00  0.00  0.76  0.00
  WS02006252WS02006251    1.00   0.00  0.78  0.00  0.08  0.00  0.13  0.00  0.00  0.00
  WS02006256WS02006235    1.00   0.00  0.00  0.00  1.00  0.00  0.00  0.00  0.00  0.00
  WSF200WS02003060        1.00   0.00  0.13  0.00  0.74  0.14  0.00  0.00  0.71  0.00
  YS02001580YS02001583    1.00   0.23  0.63  0.00  0.15  0.00  0.00  0.00  0.72  0.00
  YS02001583YS02001586    1.00   0.51  0.28  0.00  0.20  0.00  0.00  0.00  0.72  0.00
  YS02001586YS02001590    1.00   0.13  0.00  0.00  0.34  0.04  0.00  0.49  0.32  0.00
  YS02001590YS02001593    1.00   0.13  0.01  0.00  0.06  0.00  0.80  0.00  0.00  0.00
  YS02001593YS02001596    1.00   0.14  0.00  0.00  0.08  0.01  0.00  0.78  0.01  0.00
  YS02001596YS02001600    1.00   0.14  0.00  0.00  0.14  0.02  0.00  0.71  0.05  0.00
  YS02001600YS02001601    1.00   0.13  0.01  0.00  0.86  0.00  0.00  0.00  0.65  0.00
  YS02001601YS02001602    1.00   0.13  0.01  0.00  0.86  0.00  0.00  0.00  0.00  0.00
  YS02001602YS02001605    1.00   0.14  0.00  0.00  0.86  0.00  0.00  0.00  0.00  0.00
  YS02001605YS02001607    1.00   0.14  0.00  0.00  0.86  0.00  0.00  0.00  0.00  0.00
  YS02001607YS02001610    1.00   0.13  0.01  0.00  0.86  0.00  0.00  0.00  0.02  0.00
  YS02001610YS02001613    1.00   0.13  0.00  0.00  0.87  0.00  0.00  0.00  0.01  0.00
  YS02001613YS02001616    1.00   0.13  0.00  0.00  0.87  0.00  0.00  0.00  0.01  0.00
  YS02001616YS02001619    1.00   0.13  0.00  0.00  0.87  0.00  0.00  0.00  0.00  0.00
  YS02001619YS02001622    1.00   0.13  0.00  0.00  0.87  0.00  0.00  0.00  0.37  0.00
  YS02001622YS02001625    1.00   0.13  0.00  0.00  0.87  0.00  0.00  0.00  0.06  0.00
  YS02001625YS02001629    1.00   0.13  0.06  0.00  0.10  0.00  0.71  0.00  0.00  0.00
  YS02001629YS02163301    1.00   0.17  0.01  0.00  0.82  0.00  0.00  0.00  0.00  0.00
  YS02001633YS02163601    1.00   0.00  0.01  0.00  0.99  0.00  0.00  0.00  0.16  0.00
  YS02001641YS02001644    1.00   0.00  0.01  0.00  0.99  0.00  0.00  0.00  0.00  0.00
  YS02001644YS02001647    1.00   0.00  0.19  0.00  0.81  0.00  0.00  0.00  0.00  0.00
  YS02001647YS02001649    1.00   0.00  0.19  0.00  0.54  0.28  0.00  0.00  0.61  0.00
  YS02001649YS02001757    1.00   0.00  0.00  0.00  0.70  0.30  0.00  0.00  0.61  0.00
  YS02001652YS02001649    1.00   0.00  0.00  0.00  0.96  0.04  0.00  0.00  0.81  0.00
  YS02001655YS02001652    1.00   0.00  0.00  0.00  0.11  0.02  0.00  0.87  0.05  0.00
  YS02001658YS02001655    1.00   0.00  0.15  0.00  0.63  0.22  0.00  0.00  0.74  0.00
  YS02001661YS02001658    1.00   0.15  0.00  0.00  0.49  0.36  0.00  0.00  0.77  0.00
  YS02001664YS02001661    1.00   0.13  0.00  0.00  0.78  0.10  0.00  0.00  0.87  0.00
  YS02001745YS02001748    1.00   0.00  0.00  0.00  0.03  0.01  0.00  0.96  0.04  0.00
  YS02001748YS02001751    1.00   0.00  0.00  0.00  0.82  0.18  0.00  0.00  0.81  0.00
  YS02001751YS02001754    1.00   0.00  0.00  0.00  0.08  0.00  0.00  0.91  0.02  0.00
  YS02001754YS02001757    1.00   0.00  0.00  0.00  1.00  0.00  0.00  0.00  0.91  0.00
  YS02001757CaochengTiaoxuchi    1.00   0.00  0.00  0.00  1.00  0.00  0.00  0.00  0.90  0.00
  YS02001759YS02001757    1.00   0.00  0.00  0.00  1.00  0.00  0.00  0.00  0.65  0.00
  YS02001762YS02001759    1.00   0.00  0.00  0.00  1.00  0.00  0.00  0.00  0.05  0.00
  YS02001765YS02001762    1.00   0.00  0.00  0.00  1.00  0.00  0.00  0.00  0.79  0.00
  YS02001767YS02001765    1.00   0.00  0.00  0.00  1.00  0.00  0.00  0.00  0.00  0.00
  YS02001770YS02001767    1.00   0.00  0.00  0.00  1.00  0.00  0.00  0.00  0.00  0.00
  YS02001774YS02001770    1.00   0.00  0.14  0.00  0.58  0.00  0.28  0.00  0.04  0.00
  YS02001779YS02001774    1.00   0.00  0.00  0.00  1.00  0.00  0.00  0.00  0.85  0.00
  YS02001783YS02001784    1.00   0.00  0.19  0.00  0.81  0.00  0.00  0.00  0.59  0.00
  YS02001784YS02001785    1.00   0.00  0.00  0.00  1.00  0.00  0.00  0.00  0.18  0.00
  YS02001786YS02001788    1.00   0.00  0.00  0.00  0.81  0.19  0.00  0.00  0.00  0.00
  YS02001788YS02001790    1.00   0.00  0.00  0.00  0.21  0.79  0.00  0.00  0.88  0.00
  YS02001790YS02001791    1.00   0.00  0.00  0.00  0.01  0.99  0.00  0.00  0.15  0.00
  YS02001791YS02001793    1.00   0.00  0.00  0.00  0.00  1.00  0.00  0.00  0.00  0.00
  YS02001793JiankangQianchi    1.00   0.00  0.00  0.00  0.99  0.01  0.00  0.00  0.98  0.00
  YS02001882YS02001884    1.00   0.16  0.01  0.00  0.83  0.00  0.00  0.00  0.00  0.00
  YS02001884YS02001887    1.00   0.06  0.05  0.00  0.89  0.00  0.00  0.00  0.00  0.00
  YS02001887YS02001890    1.00   0.00  0.00  0.00  0.97  0.00  0.03  0.00  0.00  0.00
  YS02001890YS02001895    1.00   0.00  0.18  0.00  0.82  0.00  0.00  0.00  0.00  0.00
  YS02001895YS02001898    1.00   0.18  0.00  0.00  0.80  0.00  0.02  0.00  0.00  0.00
  YS02001898YS02001901    1.00   0.18  0.00  0.00  0.82  0.00  0.00  0.00  0.01  0.00
  YS02001901YS02001904    1.00   0.18  0.00  0.00  0.82  0.00  0.00  0.00  0.00  0.00
  YS02001904YS02001907    1.00   0.00  0.18  0.00  0.82  0.00  0.00  0.00  0.00  0.00
  YS02001907YS02006553    1.00   0.00  0.02  0.00  0.98  0.00  0.00  0.00  0.00  0.00
  YS02001910YS02001907    1.00   0.00  0.00  0.00  0.97  0.00  0.00  0.03  0.12  0.00
  YS02001915YS02001910    1.00   0.00  0.00  0.00  0.96  0.04  0.00  0.00  0.17  0.00
  YS02001918YS02001915    1.00   0.00  0.01  0.00  0.98  0.02  0.00  0.00  0.80  0.00
  YS02001920YS02001918    1.00   0.00  0.01  0.00  0.99  0.00  0.00  0.00  0.00  0.00
  YS02001923YS02001920    1.00   0.00  0.00  0.00  1.00  0.00  0.00  0.00  0.96  0.00
  YS02001926YS02001923    1.00   0.00  0.07  0.00  0.03  0.00  0.90  0.00  0.00  0.00
  YS02001929YS02001926    1.00   0.00  0.13  0.00  0.87  0.00  0.00  0.00  0.85  0.00
  YS02006553YS02006556    1.00   0.01  0.00  0.00  0.99  0.00  0.00  0.00  0.03  0.00
  YS02006556YS02006558    1.00   0.00  0.00  0.00  1.00  0.00  0.00  0.00  0.00  0.00
  YS02006558YS02006561    1.00   0.19  0.00  0.00  0.02  0.78  0.00  0.00  0.18  0.00
  YS02006561YS02001783    1.00   0.19  0.00  0.00  0.05  0.76  0.00  0.00  0.73  0.00
  YS02163301YS02001633    1.00   0.00  0.17  0.00  0.83  0.00  0.00  0.00  0.00  0.00
  YS02163601YS02164001    1.00   0.00  0.08  0.00  0.92  0.00  0.00  0.00  0.00  0.00
  YS02164001YS02001641    1.00   0.01  0.07  0.00  0.92  0.00  0.00  0.00  0.06  0.00
  
  
  *************************
  Conduit Surcharge Summary
  *************************
  
  ----------------------------------------------------------------------------
                                                           Hours        Hours 
                         --------- Hours Full --------   Above Full   Capacity
  Conduit                Both Ends  Upstream  Dnstream   Normal Flow   Limited
  ----------------------------------------------------------------------------
  WS02003072WS02003073        0.01      0.01      0.01      1.34         0.01
  WS02004404WS02004405        0.01      0.01      0.01      1.58         0.01
  WS02004405WS02004406        0.01      0.01      0.01      0.52         0.01
  WS02006109WS02006110        0.62      0.62      1.13      0.65         0.01
  WS02006110WS02006113        0.01      0.01      1.12      0.01         0.01
  WS02006111WS02006112        0.01      0.01      1.31      0.01         0.01
  WS02006112WS02006115        0.01      0.01      0.55      0.01         0.01
  WS02006228WS02006109        1.08      1.13      1.08      1.36         1.08
  WS02006229WS02006228        1.07      1.09      1.07      1.32         1.07
  WS02006230WS02006229        1.18      1.31      1.18      1.96         1.18
  WS02006231WS02006230        0.62      0.62      0.67      1.74         0.01
  WS02006232WS02006231        0.66      0.66      1.14      0.69         0.01
  WS02006234WS02006232        1.06      1.06      1.14      0.68         0.69
  WS02006235WS02006234        0.80      0.81      1.08      1.65         0.01
  WS02006238WS02006235        1.09      1.09      1.14      0.01         0.01
  WS02006239WS02006238        1.08      1.09      1.11      1.06         0.98
  WS02006240WS02006239        1.05      1.05      1.05      1.07         0.93
  WS02006242WS02006240        1.05      1.05      1.07      1.14         0.01
  WS02006243WS02006242        1.04      1.04      1.06      0.01         0.01
  WS02006245WS02006243        1.04      1.04      1.04      0.47         0.45
  WS02006247WS02006245        1.04      1.04      1.04      1.28         1.04
  WS02006248WS02006247        1.03      1.03      1.04      0.01         0.01
  WS02006249WS02006248        1.03      1.03      1.03      1.25         0.01
  WS02006251WS02006249        1.03      1.03      1.03      1.16         1.01
  WS02006252WS02006251        1.26      1.26      1.26      1.26         0.01
  WS02006256WS02006235        1.66      1.68      3.70      1.08         0.01
  YS02001580YS02001583        0.24      0.24      0.29      0.01         0.01
  YS02001583YS02001586        0.25      0.25      0.38      0.01         0.01
  YS02001586YS02001590        0.39      0.39      0.44      0.01         0.01
  YS02001590YS02001593        0.44      0.44      0.45      0.48         0.01
  YS02001593YS02001596        0.44      0.44      0.52      0.01         0.01
  YS02001596YS02001600        0.55      0.55      0.62      0.01         0.01
  YS02001600YS02001601        0.66      0.66      0.92      0.01         0.01
  YS02001601YS02001602        0.81      0.81      0.96      0.63         0.01
  YS02001602YS02001605        0.76      0.76      0.81      1.76         0.01
  YS02001605YS02001607        0.73      0.76      0.73      0.87         0.73
  YS02001607YS02001610        0.40      0.40      0.41      0.01         0.01
  YS02001610YS02001613        0.39      0.39      0.41      0.01         0.01
  YS02001613YS02001616        0.36      0.36      0.39      0.01         0.01
  YS02001616YS02001619        0.35      0.35      0.36      0.01         0.01
  YS02001619YS02001622        0.35      0.35      0.35      0.46         0.32
  YS02001622YS02001625        0.35      0.35      0.49      0.01         0.01
  YS02001625YS02001629        0.30      0.30      0.49      0.01         0.01
  YS02001629YS02163301        0.48      0.48      0.48      0.19         0.18
  YS02001633YS02163601        0.50      0.50      0.52      0.37         0.36
  YS02001641YS02001644        0.42      0.44      0.42      1.01         0.41
  YS02001644YS02001647        0.24      0.24      0.42      0.04         0.01
  YS02001647YS02001649        0.24      0.24      0.33      0.01         0.01
  YS02001649YS02001757        0.32      0.33      0.36      0.19         0.15
  YS02001652YS02001649        0.17      0.17      0.33      0.01         0.01
  YS02001655YS02001652        0.01      0.01      0.15      0.01         0.01
  YS02001658YS02001655        0.01      0.01      0.01      0.01         0.01
  YS02001751YS02001754        0.01      0.01      0.01      0.01         0.01
  YS02001754YS02001757        0.06      0.06      0.36      0.01         0.01
  YS02001757CaochengTiaoxuchi        0.33      0.36      0.79      0.17         0.12
  YS02001759YS02001757        0.28      0.28      0.36      0.01         0.01
  YS02001762YS02001759        0.26      0.26      0.28      0.01         0.01
  YS02001765YS02001762        0.21      0.21      0.26      0.01         0.01
  YS02001767YS02001765        0.18      0.18      0.21      0.01         0.01
  YS02001770YS02001767        0.18      0.19      0.18      0.27         0.12
  YS02001774YS02001770        0.16      0.16      0.24      0.01         0.01
  YS02001779YS02001774        0.03      0.03      0.24      0.01         0.01
  YS02001783YS02001784        0.24      0.26      0.24      0.36         0.24
  YS02001784YS02001785        0.14      0.24      0.14      0.51         0.14
  YS02001786YS02001788        0.01      0.14      0.01      0.43         0.01
  YS02001790YS02001791        0.01      0.01      0.01      0.23         0.01
  YS02001793JiankangQianchi        0.01      0.01      7.69      0.01         0.01
  YS02001882YS02001884        0.21      0.21      0.22      0.01         0.01
  YS02001884YS02001887        0.24      0.24      0.25      0.01         0.01
  YS02001887YS02001890        0.26      0.26      0.27      0.01         0.01
  YS02001890YS02001895        0.20      0.20      0.29      0.01         0.01
  YS02001895YS02001898        0.20      0.20      0.20      0.01         0.01
  YS02001898YS02001901        0.21      0.21      0.24      0.01         0.01
  YS02001901YS02001904        0.23      0.23      0.24      0.01         0.01
  YS02001904YS02001907        0.23      0.23      0.42      0.01         0.01
  YS02001907YS02006553        0.52      0.52      0.57      0.01         0.01
  YS02001910YS02001907        0.29      0.29      0.41      0.01         0.01
  YS02001915YS02001910        0.21      0.21      0.29      0.01         0.01
  YS02001918YS02001915        0.12      0.12      0.21      0.01         0.01
  YS02001920YS02001918        0.12      0.12      0.14      0.01         0.01
  YS02001923YS02001920        0.04      0.04      0.14      0.01         0.01
  YS02001926YS02001923        0.01      0.01      0.01      0.01         0.01
  YS02001929YS02001926        0.01      0.01      0.01      0.01         0.01
  YS02006553YS02006556        0.35      0.35      0.42      0.01         0.01
  YS02006556YS02006558        0.39      0.39      0.43      0.01         0.01
  YS02006558YS02006561        0.16      0.34      0.16      0.48         0.16
  YS02006561YS02001783        0.08      0.08      0.26      0.01         0.01
  YS02163301YS02001633        0.48      0.48      0.51      0.01         0.01
  YS02163601YS02164001        0.45      0.45      0.52      0.12         0.01
  YS02164001YS02001641        0.44      0.45      0.44      0.54         0.44
  
  
  ***************
  Pumping Summary
  ***************
  
  ---------------------------------------------------------------------------------------------------------
                                                  Min       Avg       Max     Total     Power    % Time Off
                        Percent   Number of      Flow      Flow      Flow    Volume     Usage    Pump Curve
  Pump                 Utilized   Start-Ups       LPS       LPS       LPS  10^6 ltr     Kw-hr    Low   High
  ---------------------------------------------------------------------------------------------------------
  CC-R1                   14.88          19      0.00    683.00    683.00     2.926     52.28    0.0   39.3
  CC-R2                   13.23          19      0.00    683.00    683.00     2.602     46.26    0.0   44.2
  CC-S1                   16.63          19      0.00    200.00    200.00     0.958      6.01    0.0    0.0
  CC-S2                   15.73          19      0.00    200.00    200.00     0.906      5.70    0.0    0.0
  JK-R1                    4.25           8      0.00   1000.00   1000.00     1.225     14.03    0.0    0.0
  JK-R2                    0.16           1      0.00   1000.00   1000.00     0.047      0.36    0.0    0.0
  JK-S                    13.50           7      0.00    300.00    300.00     1.167     17.54    0.0    0.0
  XR-1                    97.91           2      0.00     95.00     95.00     2.679      9.60    0.0    0.0
  XR-2                    93.94           2      0.00     95.00     95.00     2.570      8.76    0.0    0.0
  XR-3                     0.00           1      0.00     95.00     95.00     0.000      0.00    0.0    0.0
  XR-4                     0.00           1      0.00     95.00     95.00     0.000      0.00    0.0    0.0
  

  Analysis begun on:  Wed Nov  5 16:31:07 2025
  Analysis ended on:  Wed Nov  5 16:31:09 2025
  Total elapsed time: 00:00:02