
  EPA STORM WATER MANAGEMENT MODEL - VERSION 5.2 (Build 5.2.4)
  PYSWMM TOOLKIT API - VERSION v1.0 (2023-11-27)
  ------------------------------------------------------------

  WARNING 04: minimum elevation drop used for Conduit WS02004404WS02004405
  WARNING 03: negative offset ignored for Link YS02001904YS02001907
  
  ****************
  Analysis Options
  ****************
  Flow Units ............... LPS
  Process Models:
    Rainfall/Runoff ........ YES
    RDII ................... NO
    Snowmelt ............... NO
    Groundwater ............ NO
    Flow Routing ........... YES
    Ponding Allowed ........ NO
    Water Quality .......... NO
  Infiltration Method ...... HORTON
  Flow Routing Method ...... DYNWAVE
  Surcharge Method ......... EXTRAN
  Starting Date ............ 08/28/2015 08:00:00
  Ending Date .............. 08/28/2015 16:00:00
  Antecedent Dry Days ...... 8.0
  Report Time Step ......... 00:01:00
  Wet Time Step ............ 00:01:00
  Dry Time Step ............ 00:01:00
  Routing Time Step ........ 30.00 sec
  Variable Time Step ....... YES
  Maximum Trials ........... 8
  Number of Threads ........ 4
  Head Tolerance ........... 0.001500 m
  
  
  **************************        Volume         Depth
  Runoff Quantity Continuity     hectare-m            mm
  **************************     ---------       -------
  Initial LID Storage ......         0.049         1.488
  Total Precipitation ......         2.772        83.557
  Evaporation Loss .........         0.000         0.000
  Infiltration Loss ........         0.079         2.368
  Surface Runoff ...........         2.083        62.809
  Final Storage ............         0.660        19.884
  Continuity Error (%) .....        -0.020
  
  
  **************************        Volume        Volume
  Flow Routing Continuity        hectare-m      10^6 ltr
  **************************     ---------     ---------
  Dry Weather Inflow .......         0.602         6.020
  Wet Weather Inflow .......         2.084        20.836
  Groundwater Inflow .......         0.000         0.000
  RDII Inflow ..............         0.000         0.000
  External Inflow ..........         0.105         1.045
  External Outflow .........         2.130        21.304
  Flooding Loss ............         0.638         6.376
  Evaporation Loss .........         0.000         0.000
  Exfiltration Loss ........         0.000         0.000
  Initial Stored Volume ....         0.303         3.031
  Final Stored Volume ......         0.333         3.329
  Continuity Error (%) .....        -0.252
  
  
  *************************
  Highest Continuity Errors
  *************************
  Node YS02001583 (-11.20%)
  Node YS02001884 (4.79%)
  
  
  ***************************
  Time-Step Critical Elements
  ***************************
  Link WS02004404WS02004405 (35.88%)
  Link WS02006238WS02006235 (17.12%)
  Link YS02001791YS02001793 (11.52%)
  Link WS02006252WS02006251 (9.29%)
  Link WS02003066WSF200 (4.89%)
  
  
  ********************************
  Highest Flow Instability Indexes
  ********************************
  Link WS02006252WS02006251 (32)
  Link WS02006113WS02006111 (30)
  Link YS02001602YS02001605 (20)
  Link WS02006111WS02006112 (20)
  Link WS02006238WS02006235 (19)
  
  
  *********************************
  Most Frequent Nonconverging Nodes
  *********************************
  Node CC-1 (21.75%)
  Node CC-2 (21.75%)
  Node JK-1 (21.75%)
  Node JK-2 (21.75%)
  Node WSC (21.75%)
  
  
  *************************
  Routing Time Step Summary
  *************************
  Minimum Time Step           :     0.01 sec
  Average Time Step           :     3.35 sec
  Maximum Time Step           :     7.04 sec
  % of Time in Steady State   :     0.00
  Average Iterations per Step :     3.75
  % of Steps Not Converging   :    21.75
  Time Step Frequencies       :
     30.000 - 13.228 sec      :     0.00 %
     13.228 -  5.833 sec      :    23.53 %
      5.833 -  2.572 sec      :    27.01 %
      2.572 -  1.134 sec      :    35.52 %
      1.134 -  0.500 sec      :    13.94 %
  
  
  ***************************
  Subcatchment Runoff Summary
  ***************************
  
  ------------------------------------------------------------------------------------------------------------------------------
                            Total      Total      Total      Total     Imperv       Perv      Total       Total     Peak  Runoff
                           Precip      Runon       Evap      Infil     Runoff     Runoff     Runoff      Runoff   Runoff   Coeff
  Subcatchment                 mm         mm         mm         mm         mm         mm         mm    10^6 ltr      LPS
  ------------------------------------------------------------------------------------------------------------------------------
  sub60                     83.56       0.00       0.00       1.42      55.83       6.32      62.15        0.82   508.11   0.744
  sub61                     83.56       0.00       0.00       2.18      55.78       9.43      65.21        1.20   737.38   0.780
  sub62                     83.56       0.00       0.00       0.97      59.47       4.29      63.76        1.75  1014.13   0.763
  sub63                     83.56       0.00       0.00       3.98      47.77      15.86      63.64        1.44   824.01   0.762
  sub64                     83.56       0.00       0.00       1.91      54.40       7.85      62.26        1.50   819.47   0.745
  sub65                     83.56       0.00       0.00       1.75      58.72       7.17      65.90        1.81   958.89   0.789
  sub66                     83.56       0.00       0.00       4.59      46.21      14.63      60.84        2.84  1229.90   0.728
  sub67                     83.56       0.00       0.00       0.96      60.96       4.43      65.39        1.22   793.01   0.783
  sub68                     83.56       0.00       0.00       1.67      53.84       7.24      61.08        1.68  1007.08   0.731
  sub69                     83.56       0.00       0.00       1.53      56.21       8.40      64.60        2.39  1244.42   0.773
  sub70                     83.56       0.00       0.00       5.06      45.04      18.20      63.24        1.83   711.40   0.757
  sub71                     83.56       0.00       0.00       0.89      54.03       3.89      57.91        1.51   831.99   0.693
  sub72                     83.56       0.00       0.00       0.85      58.37       3.62      61.99        0.85   427.64   0.742
  

  ***********************
  LID Performance Summary
  ***********************

  --------------------------------------------------------------------------------------------------------------------
                                         Total      Evap     Infil   Surface    Drain    Initial     Final  Continuity
                                        Inflow      Loss      Loss   Outflow   Outflow   Storage   Storage       Error
  Subcatchment      LID Control             mm        mm        mm        mm        mm        mm        mm           %
  --------------------------------------------------------------------------------------------------------------------
  sub60             GreenRoof            83.56      0.00      0.00      0.00      0.00      7.05     90.61       -0.00
  sub61             GreenRoof            83.56      0.00      0.00      0.00      0.00      7.05     90.61       -0.00
  sub62             GreenRoof            83.56      0.00      0.00      0.00      0.00      7.05     90.61       -0.00
  sub63             GreenRoof            83.56      0.00      0.00      0.00      0.00      7.05     90.61       -0.00
  sub64             GreenRoof            83.56      0.00      0.00      0.00      0.00      7.05     90.61       -0.00
  sub65             GreenRoof            83.56      0.00      0.00      0.00      0.00      7.05     90.61       -0.00
  sub66             GreenRoof            83.56      0.00      0.00      0.00      0.00      7.05     90.61       -0.00
  sub67             GreenRoof            83.56      0.00      0.00      0.00      0.00      7.05     90.61       -0.00
  sub68             GreenRoof            83.56      0.00      0.00      0.00      0.00      7.05     90.61       -0.00
  sub69             GreenRoof            83.56      0.00      0.00      0.00      0.00      7.05     90.61       -0.00
  sub70             GreenRoof            83.56      0.00      0.00      0.00      0.00      7.05     90.61       -0.00
  sub71             GreenRoof            83.56      0.00      0.00      0.00      0.00      7.05     90.61       -0.00
  sub72             GreenRoof            83.56      0.00      0.00      0.00      0.00      7.05     90.61       -0.00
  
  ******************
  Node Depth Summary
  ******************
  
  ---------------------------------------------------------------------------------
                                 Average  Maximum  Maximum  Time of Max    Reported
                                   Depth    Depth      HGL   Occurrence   Max Depth
  Node                 Type       Meters   Meters   Meters  days hr:min      Meters
  ---------------------------------------------------------------------------------
  WS02001211           JUNCTION     0.60     0.64     5.48     0  03:24        0.64
  WS02001212           JUNCTION     0.34     0.38     5.45     0  03:23        0.38
  WS02001213           JUNCTION     0.54     0.65     5.41     0  03:23        0.65
  WS02003059           JUNCTION     0.60     0.72     5.40     0  03:22        0.72
  WS02003060           JUNCTION     0.31     0.45     5.38     0  03:22        0.45
  WS02003066           JUNCTION     0.17     0.30     5.85     0  03:21        0.30
  WS02003067           JUNCTION     0.45     0.70     6.02     0  03:04        0.70
  WS02003069           JUNCTION     0.35     0.51     5.10     0  03:22        0.51
  WS02003072           JUNCTION     0.41     0.58     4.95     0  03:22        0.58
  WS02003073           JUNCTION     0.24     0.35     4.41     0  03:23        0.35
  WS02004138           JUNCTION     0.13     0.14     7.39     0  00:29        0.14
  WS02004139           JUNCTION     0.54     0.58     5.49     0  03:24        0.58
  WS02004401           JUNCTION     0.55     0.85     6.85     0  03:00        0.85
  WS02004402           JUNCTION     0.58     0.88     6.84     0  03:00        0.88
  WS02004403           JUNCTION     0.60     0.89     6.82     0  03:01        0.89
  WS02004404           JUNCTION     0.68     0.96     6.81     0  03:01        0.96
  WS02004405           JUNCTION     0.67     0.96     6.81     0  03:01        0.96
  WS02004406           JUNCTION     0.68     0.96     6.79     0  03:01        0.96
  WS02004407           JUNCTION     0.15     0.30     6.61     0  03:01        0.30
  WS02004409           JUNCTION     0.34     0.67     6.44     0  03:20        0.67
  WS02004410           JUNCTION     0.37     0.68     6.40     0  03:21        0.68
  WS02004411           JUNCTION     0.39     0.69     6.37     0  03:21        0.69
  WS02004412           JUNCTION     0.41     0.70     6.34     0  03:21        0.70
  WS02004413           JUNCTION     0.57     0.86     6.33     0  03:21        0.86
  WS02006109           JUNCTION     0.61     1.42     8.03     0  02:06        1.16
  WS02006110           JUNCTION     0.61     1.46     8.04     0  02:06        0.95
  WS02006111           JUNCTION     0.15     0.29     7.00     0  02:48        0.29
  WS02006112           JUNCTION     0.70     1.08     6.97     0  02:13        1.05
  WS02006113           JUNCTION     0.24     0.46     7.35     0  02:48        0.46
  WS02006115           JUNCTION     0.43     0.75     6.89     0  03:19        0.75
  WS02006116           JUNCTION     0.52     0.83     6.87     0  03:00        0.83
  WS02006228           JUNCTION     0.60     1.85     8.50     0  02:06        1.35
  WS02006229           JUNCTION     0.58     1.98     8.67     0  02:06        1.41
  WS02006230           JUNCTION     0.58     2.28     9.03     0  02:06        1.55
  WS02006231           JUNCTION     0.39     1.95     9.07     0  02:06        1.58
  WS02006232           JUNCTION     0.52     2.18     9.22     0  02:36        2.18
  WS02006234           JUNCTION     0.45     1.96     9.12     0  01:50        1.96
  WS02006235           JUNCTION     0.50     1.98     9.14     0  01:50        1.77
  WS02006238           JUNCTION     0.52     2.03     9.17     0  01:50        1.74
  WS02006239           JUNCTION     0.49     1.97     9.18     0  01:50        1.49
  WS02006240           JUNCTION     0.47     1.81     9.11     0  01:50        1.43
  WS02006242           JUNCTION     0.52     1.55     8.82     0  01:50        1.48
  WS02006243           JUNCTION     0.46     1.40     8.82     0  01:50        1.33
  WS02006245           JUNCTION     0.46     1.32     8.80     0  01:50        1.28
  WS02006247           JUNCTION     0.48     1.27     8.77     0  01:50        1.27
  WS02006248           JUNCTION     0.45     1.10     8.69     0  01:45        1.10
  WS02006249           JUNCTION     0.47     1.09     8.69     0  01:41        1.09
  WS02006251           JUNCTION     0.47     1.41     9.08     0  02:35        1.15
  WS02006252           JUNCTION     0.31     1.50     9.74     0  00:00        0.73
  WS02006256           JUNCTION     1.09     2.35     9.28     0  00:00        2.35
  WSF200               JUNCTION     0.15     0.31     5.54     0  03:22        0.31
  YS02001580           JUNCTION     0.17     1.05     9.59     0  01:34        0.77
  YS02001583           JUNCTION     0.20     1.14     9.64     0  01:34        0.82
  YS02001586           JUNCTION     0.32     1.13     9.30     0  01:33        1.13
  YS02001590           JUNCTION     0.44     1.40     9.26     0  01:33        1.39
  YS02001593           JUNCTION     0.37     1.38     9.24     0  01:33        1.30
  YS02001596           JUNCTION     0.50     1.71     9.13     0  01:33        1.67
  YS02001600           JUNCTION     0.60     1.87     9.00     0  01:33        1.86
  YS02001601           JUNCTION     0.79     2.06     8.90     0  01:33        2.06
  YS02001602           JUNCTION     0.69     1.87     8.77     0  01:33        1.87
  YS02001605           JUNCTION     0.64     1.78     8.68     0  01:33        1.78
  YS02001607           JUNCTION     0.60     1.68     8.53     0  01:33        1.66
  YS02001610           JUNCTION     0.64     1.68     8.48     0  01:33        1.68
  YS02001613           JUNCTION     0.60     1.68     8.52     0  01:34        1.67
  YS02001616           JUNCTION     0.54     1.61     8.52     0  01:34        1.61
  YS02001619           JUNCTION     0.52     1.61     8.54     0  01:34        1.61
  YS02001622           JUNCTION     0.51     1.62     8.52     0  01:34        1.59
  YS02001625           JUNCTION     0.76     1.78     8.38     0  01:34        1.78
  YS02001629           JUNCTION     0.66     1.85     8.40     0  01:34        1.85
  YS02001633           JUNCTION     0.73     2.08     8.53     0  02:07        2.08
  YS02001641           JUNCTION     0.69     2.10     8.54     0  02:07        2.10
  YS02001644           JUNCTION     0.68     1.92     8.35     0  01:36        1.92
  YS02001647           JUNCTION     0.47     1.81     8.42     0  02:04        1.73
  YS02001649           JUNCTION     0.53     2.05     8.44     0  01:37        1.93
  YS02001652           JUNCTION     0.41     2.16     8.76     0  01:35        1.79
  YS02001655           JUNCTION     0.32     2.20     9.05     0  01:36        1.60
  YS02001658           JUNCTION     0.22     2.30     9.44     0  01:36        1.39
  YS02001661           JUNCTION     0.21     2.46     9.86     0  01:37        1.22
  YS02001664           JUNCTION     0.08     0.97     8.89     0  01:37        0.79
  YS02001745           JUNCTION     0.10     2.35     9.87     0  01:37        0.75
  YS02001748           JUNCTION     0.21     2.27     9.35     0  01:36        1.17
  YS02001751           JUNCTION     0.27     2.20     9.08     0  01:36        1.35
  YS02001754           JUNCTION     0.37     2.20     8.81     0  01:36        1.61
  YS02001757           JUNCTION     0.55     2.21     8.47     0  01:37        1.94
  YS02001759           JUNCTION     0.49     2.21     8.57     0  01:37        1.94
  YS02001762           JUNCTION     0.48     2.15     8.55     0  01:37        1.91
  YS02001765           JUNCTION     0.46     2.10     8.55     0  01:37        1.88
  YS02001767           JUNCTION     0.45     2.03     8.52     0  01:36        1.88
  YS02001770           JUNCTION     0.46     1.95     8.44     0  01:36        1.91
  YS02001774           JUNCTION     0.52     2.05     8.47     0  01:36        1.97
  YS02001779           JUNCTION     0.35     1.68     8.37     0  01:36        1.68
  YS02001783           JUNCTION     0.34     1.52     7.66     0  01:35        1.25
  YS02001784           JUNCTION     0.34     1.44     7.50     0  01:35        1.13
  YS02001786           JUNCTION     0.29     1.24     7.27     0  01:35        0.88
  YS02001788           JUNCTION     0.21     0.62     6.60     0  01:37        0.62
  YS02001790           JUNCTION     0.24     0.73     6.37     0  01:38        0.72
  YS02001791           JUNCTION     0.15     0.44     5.91     0  01:38        0.42
  YS02001793           JUNCTION     0.08     0.30     5.13     0  01:41        0.30
  YS02001882           JUNCTION     0.42     1.83     8.55     0  01:34        1.64
  YS02001884           JUNCTION     0.51     1.93     8.55     0  01:34        1.74
  YS02001887           JUNCTION     0.58     1.96     8.50     0  01:35        1.82
  YS02001890           JUNCTION     0.61     1.81     8.32     0  01:35        1.81
  YS02001895           JUNCTION     0.39     1.75     8.50     0  01:35        1.57
  YS02001898           JUNCTION     0.39     1.77     8.51     0  01:35        1.56
  YS02001901           JUNCTION     0.50     1.87     8.48     0  01:35        1.67
  YS02001904           JUNCTION     0.48     1.81     8.44     0  01:35        1.64
  YS02001907           JUNCTION     0.80     1.96     8.25     0  01:35        1.96
  YS02001910           JUNCTION     0.60     2.04     8.55     0  01:35        2.03
  YS02001915           JUNCTION     0.42     2.00     8.72     0  01:35        1.98
  YS02001918           JUNCTION     0.24     1.81     8.88     0  01:35        1.81
  YS02001920           JUNCTION     0.32     2.14     9.15     0  01:35        1.59
  YS02001923           JUNCTION     0.19     2.03     9.29     0  01:36        1.38
  YS02001926           JUNCTION     0.21     1.90     9.35     0  01:36        1.24
  YS02001929           JUNCTION     0.13     1.78     9.47     0  01:36        1.04
  YS02006553           JUNCTION     0.80     2.04     8.33     0  01:35        1.98
  YS02006556           JUNCTION     0.77     2.12     8.43     0  01:35        1.96
  YS02006558           JUNCTION     0.81     2.19     8.46     0  01:35        2.02
  YS02006561           JUNCTION     0.21     1.26     7.92     0  01:35        0.92
  YS02163301           JUNCTION     0.68     2.00     8.52     0  02:07        2.00
  YS02163601           JUNCTION     0.76     2.08     8.48     0  02:04        2.08
  YS02164001           JUNCTION     0.69     2.10     8.56     0  02:07        2.10
  CC-1                 OUTFALL      0.00     0.00     0.00     0  00:00        0.00
  CC-2                 OUTFALL      0.00     0.00     0.00     0  00:00        0.00
  JK-1                 OUTFALL      0.00     0.00     0.00     0  00:00        0.00
  JK-2                 OUTFALL      0.00     0.00     0.00     0  00:00        0.00
  WSC                  OUTFALL      0.24     0.35     1.02     0  03:23        0.35
  CC-storage           STORAGE      0.92     1.72     7.22     0  02:13        1.72
  JK-storage           STORAGE      2.90     4.23     5.03     0  01:55        4.18
  XR-storage           STORAGE      7.82     9.26     7.26     0  08:00        9.26
  
  
  *******************
  Node Inflow Summary
  *******************
  
  -------------------------------------------------------------------------------------------------
                                  Maximum  Maximum                  Lateral       Total        Flow
                                  Lateral    Total  Time of Max      Inflow      Inflow     Balance
                                   Inflow   Inflow   Occurrence      Volume      Volume       Error
  Node                 Type           LPS      LPS  days hr:min    10^6 ltr    10^6 ltr     Percent
  -------------------------------------------------------------------------------------------------
  WS02001211           JUNCTION      7.35   200.29     0  03:29       0.212        5.44       0.611
  WS02001212           JUNCTION      0.00   202.12     0  03:39           0        5.41       0.290
  WS02001213           JUNCTION      0.00   204.47     0  03:28           0        5.39       0.331
  WS02003059           JUNCTION      0.00   209.09     0  03:40           0        5.38       0.592
  WS02003060           JUNCTION     16.53   750.41     0  03:22       0.476        9.62       0.146
  WS02003066           JUNCTION      0.00   536.22     0  03:21           0         3.8       0.033
  WS02003067           JUNCTION      0.00   536.22     0  03:21           0         3.8       0.106
  WS02003069           JUNCTION      0.32   750.73     0  03:22     0.00922        9.61       0.154
  WS02003072           JUNCTION      0.00   750.72     0  03:22           0         9.6       0.211
  WS02003073           JUNCTION      1.82   752.54     0  03:23      0.0524        9.63       0.217
  WS02004138           JUNCTION      0.00   380.00     0  00:00           0        5.25       0.053
  WS02004139           JUNCTION      0.32   191.16     0  00:29     0.00924        5.26       0.509
  WS02004401           JUNCTION      0.00   539.69     0  02:37           0         3.9       0.253
  WS02004402           JUNCTION      0.00   537.47     0  03:00           0        3.89       0.259
  WS02004403           JUNCTION      0.00   537.30     0  03:00           0        3.88       0.254
  WS02004404           JUNCTION      0.16   537.14     0  03:01     0.00467        3.87       0.212
  WS02004405           JUNCTION      0.04   537.09     0  03:01      0.0011        3.87       0.318
  WS02004406           JUNCTION      0.00   537.31     0  03:01           0        3.85       0.527
  WS02004407           JUNCTION      0.00   536.88     0  03:01           0        3.83       0.024
  WS02004409           JUNCTION      0.00   536.71     0  03:01           0        3.83       0.060
  WS02004410           JUNCTION      0.00   536.50     0  03:01           0        3.83       0.104
  WS02004411           JUNCTION      0.00   536.29     0  03:02           0        3.83       0.135
  WS02004412           JUNCTION      0.00   536.25     0  03:02           0        3.82       0.185
  WS02004413           JUNCTION      0.00   536.28     0  03:04           0        3.82       0.331
  WS02006109           JUNCTION      1.23   587.29     0  02:36      0.0354        3.94       0.213
  WS02006110           JUNCTION      0.00   590.69     0  02:36           0        3.93       0.163
  WS02006111           JUNCTION      0.00   564.77     0  02:48           0        3.93       0.018
  WS02006112           JUNCTION      0.00   545.16     0  02:48           0        3.93       0.445
  WS02006113           JUNCTION      0.00   584.99     0  02:36           0        3.93       0.041
  WS02006115           JUNCTION      0.00   562.71     0  02:37           0        3.91       0.157
  WS02006116           JUNCTION      0.00   546.03     0  02:37           0         3.9       0.062
  WS02006228           JUNCTION      0.00   577.15     0  02:36           0        3.91       0.090
  WS02006229           JUNCTION      0.00   573.93     0  02:36           0        3.92       0.115
  WS02006230           JUNCTION     10.28   589.21     0  01:55       0.296        3.92       0.095
  WS02006231           JUNCTION      0.00   580.47     0  02:23           0        3.62      -0.071
  WS02006232           JUNCTION      0.00   579.47     0  02:23           0        3.63       0.262
  WS02006234           JUNCTION      0.00   573.58     0  02:23           0        3.62      -0.248
  WS02006235           JUNCTION      0.00   564.08     0  02:26           0        3.68       0.170
  WS02006238           JUNCTION      0.00   430.84     0  03:21           0        2.63      -0.134
  WS02006239           JUNCTION      0.00   429.92     0  03:21           0         2.6      -0.045
  WS02006240           JUNCTION      0.00   426.31     0  03:21           0        2.57      -0.072
  WS02006242           JUNCTION      0.00   425.45     0  03:21           0        2.55      -0.132
  WS02006243           JUNCTION      0.00   424.82     0  03:20           0        2.54      -0.129
  WS02006245           JUNCTION      0.00   425.33     0  03:21           0        2.54       0.409
  WS02006247           JUNCTION      0.00   425.81     0  03:21           0        2.54      -0.004
  WS02006248           JUNCTION      0.00   424.72     0  03:21           0        2.54      -0.112
  WS02006249           JUNCTION      0.00   458.97     0  00:00           0        2.86       0.486
  WS02006251           JUNCTION      0.08   407.72     0  01:41     0.00222        2.86      -0.008
  WS02006252           JUNCTION      0.00   400.00     0  00:00           0        2.85      -0.217
  WS02006256           JUNCTION      0.00   300.00     0  00:00           0         1.6      -0.614
  WSF200               JUNCTION      0.00   536.22     0  03:22           0         3.8       0.012
  YS02001580           JUNCTION      0.00   163.66     0  01:33           0     0.00485       1.659
  YS02001583           JUNCTION      0.00   268.51     0  01:34           0      0.0152     -10.071
  YS02001586           JUNCTION    711.40   711.49     0  01:41        1.83        1.84       0.086
  YS02001590           JUNCTION      0.00   318.08     0  01:51           0        1.43      -0.015
  YS02001593           JUNCTION      0.00   318.08     0  01:51           0        1.43      -0.002
  YS02001596           JUNCTION      0.00   318.01     0  02:06           0        1.43      -0.011
  YS02001600           JUNCTION      0.00   318.29     0  01:51           0        1.43      -0.001
  YS02001601           JUNCTION   1244.42  1561.93     0  01:40        2.39        3.82      -0.000
  YS02001602           JUNCTION      0.00   571.32     0  01:33           0        2.39       0.008
  YS02001605           JUNCTION      0.00   571.31     0  01:33           0        2.26       0.008
  YS02001607           JUNCTION      0.00   571.27     0  01:33           0        2.26       0.075
  YS02001610           JUNCTION      0.00   663.13     0  01:41           0        2.46       0.080
  YS02001613           JUNCTION      0.00   561.47     0  01:33           0        1.95       0.076
  YS02001616           JUNCTION      0.00   578.19     0  01:33           0        1.96       0.022
  YS02001619           JUNCTION   1229.90  1229.90     0  01:41        2.84        4.59      -0.007
  YS02001622           JUNCTION      0.00   990.95     0  01:34           0        4.38      -0.012
  YS02001625           JUNCTION      0.00  1275.71     0  01:42           0        4.56       0.192
  YS02001629           JUNCTION      0.00   965.28     0  01:34           0        3.57      -0.001
  YS02001633           JUNCTION    959.09  1445.33     0  01:35        1.82        5.16       0.059
  YS02001641           JUNCTION      0.00  1444.89     0  01:35           0        4.94       0.050
  YS02001644           JUNCTION    819.51  1941.73     0  01:35         1.5        6.43       0.042
  YS02001647           JUNCTION      0.00  1941.54     0  01:35           0         6.1       0.005
  YS02001649           JUNCTION      0.00  2219.87     0  01:35           0        7.56       0.008
  YS02001652           JUNCTION      0.00  1007.43     0  01:38           0        1.45      -0.105
  YS02001655           JUNCTION      0.15  1004.47     0  01:38     0.00443        1.45      -0.179
  YS02001658           JUNCTION      0.00  1002.85     0  01:38           0        1.45      -0.103
  YS02001661           JUNCTION      0.00   999.61     0  01:38           0        1.46       0.040
  YS02001664           JUNCTION    824.01   824.01     0  01:39        1.44        1.44      -0.030
  YS02001745           JUNCTION    508.11   740.45     0  01:36       0.817       0.819       0.212
  YS02001748           JUNCTION      0.04   820.45     0  01:36      0.0013       0.824      -0.425
  YS02001751           JUNCTION      0.01   629.45     0  01:37    0.000317       0.833       0.029
  YS02001754           JUNCTION      0.26   628.84     0  01:37     0.00749       0.848      -0.182
  YS02001757           JUNCTION      0.00  3482.14     0  01:37           0        11.2       0.029
  YS02001759           JUNCTION    737.42  1523.84     0  01:37         1.2        2.82      -0.013
  YS02001762           JUNCTION      0.00   828.18     0  01:37           0        1.62      -0.004
  YS02001765           JUNCTION      0.00   829.55     0  01:37           0        1.62       0.003
  YS02001767           JUNCTION      0.54   830.32     0  01:37      0.0154        1.62      -0.004
  YS02001770           JUNCTION   1014.28  1014.28     0  01:39        1.75         1.8      -0.027
  YS02001774           JUNCTION      0.00   610.68     0  01:36           0        0.21       0.536
  YS02001779           JUNCTION      0.01   617.22     0  01:36    0.000144       0.164      -0.459
  YS02001783           JUNCTION      0.00  1164.32     0  01:36           0        4.18       0.005
  YS02001784           JUNCTION      1.06  1165.34     0  01:36      0.0305        4.21       0.011
  YS02001786           JUNCTION      0.06  1165.32     0  01:36     0.00162        4.21       0.016
  YS02001788           JUNCTION      0.07  1166.58     0  01:36     0.00204        4.21       0.007
  YS02001790           JUNCTION      0.15  1178.27     0  01:37     0.00446        4.21       0.018
  YS02001791           JUNCTION      0.00  1289.65     0  01:38           0        4.21      -0.020
  YS02001793           JUNCTION      0.00  1258.04     0  01:38           0        4.21       0.004
  YS02001882           JUNCTION      0.00    95.84     0  01:34           0      0.0127       4.098
  YS02001884           JUNCTION      0.00   154.93     0  01:34           0      0.0486       5.029
  YS02001887           JUNCTION    793.46   793.46     0  01:38        1.23        1.26       0.334
  YS02001890           JUNCTION      0.00   793.45     0  01:38           0        1.22       0.400
  YS02001895           JUNCTION      0.00   601.15     0  01:35           0        1.14       0.133
  YS02001898           JUNCTION      0.00   601.06     0  01:35           0        1.14      -0.013
  YS02001901           JUNCTION      0.00   600.86     0  01:35           0        1.14       0.283
  YS02001904           JUNCTION      0.00   599.73     0  01:35           0        1.14       0.232
  YS02001907           JUNCTION      0.00  1811.16     0  01:39           0        3.59       0.467
  YS02001910           JUNCTION      0.00  1291.71     0  01:39           0        2.45       0.286
  YS02001915           JUNCTION    832.01  1291.45     0  01:39        1.52         2.5       0.055
  YS02001918           JUNCTION      0.00   726.06     0  01:35           0        1.02      -0.002
  YS02001920           JUNCTION      2.87   715.02     0  01:35      0.0827       0.995       0.069
  YS02001923           JUNCTION      0.04   978.46     0  01:35     0.00109       0.897      -0.096
  YS02001926           JUNCTION      0.05  1223.72     0  01:36      0.0015       0.876      -0.072
  YS02001929           JUNCTION    427.64   885.71     0  01:36       0.852       0.858      -0.046
  YS02006553           JUNCTION      0.00   787.77     0  01:58           0        2.52       0.470
  YS02006556           JUNCTION      0.00   787.09     0  01:58           0        2.53       0.302
  YS02006558           JUNCTION   1007.96  1170.38     0  01:35        1.71        4.21       0.078
  YS02006561           JUNCTION      0.00  1168.97     0  01:35           0        4.18       0.002
  YS02163301           JUNCTION      0.00   908.30     0  01:34           0        3.56       0.034
  YS02163601           JUNCTION      0.11  1445.22     0  01:35     0.00317        4.93       0.090
  YS02164001           JUNCTION      0.00  1444.90     0  01:35           0        4.93       0.036
  CC-1                 OUTFALL       0.00   683.00     0  00:00           0        4.65       0.000
  CC-2                 OUTFALL       0.00   683.00     0  00:00           0        4.46       0.000
  JK-1                 OUTFALL       0.00  1000.00     0  00:00           0        2.55       0.000
  JK-2                 OUTFALL       0.00  1000.00     0  00:00           0      0.0484       0.000
  WSC                  OUTFALL       0.00   752.54     0  03:23           0        9.61       0.000
  CC-storage           STORAGE       0.00  3480.73     0  01:37           0        13.4      -0.205
  JK-storage           STORAGE       0.00  1232.46     0  01:38           0        4.36       0.047
  XR-storage           STORAGE     200.00   200.00     0  00:00        5.76        6.36       0.001
  
  
  **********************
  Node Surcharge Summary
  **********************
  
  Surcharging occurs when water rises above the top of the highest conduit.
  ---------------------------------------------------------------------
                                               Max. Height   Min. Depth
                                   Hours       Above Crown    Below Rim
  Node                 Type      Surcharged         Meters       Meters
  ---------------------------------------------------------------------
  WS02006109           JUNCTION        1.77          0.596        1.224
  WS02006110           JUNCTION        1.03          0.545        1.305
  WS02006112           JUNCTION        1.16          0.083        1.597
  WS02006228           JUNCTION        1.76          1.023        1.177
  WS02006229           JUNCTION        1.77          1.181        1.269
  WS02006230           JUNCTION        1.04          1.205        0.365
  WS02006231           JUNCTION        1.21          1.235        0.295
  WS02006232           JUNCTION        1.79          1.480        0.000
  WS02006234           JUNCTION        1.48          1.240        0.000
  WS02006235           JUNCTION        1.72          1.270        0.020
  WS02006238           JUNCTION        1.77          1.305        0.125
  WS02006239           JUNCTION        1.75          1.231        0.059
  WS02006240           JUNCTION        1.76          1.103        0.287
  WS02006242           JUNCTION        1.78          0.820        0.000
  WS02006243           JUNCTION        1.76          0.689        0.081
  WS02006245           JUNCTION        1.76          0.608        0.242
  WS02006247           JUNCTION        1.76          0.557        0.203
  WS02006248           JUNCTION        1.75          0.380        0.000
  WS02006249           JUNCTION        1.75          0.390        0.000
  WS02006251           JUNCTION        1.30          0.376        0.804
  WS02006252           JUNCTION        1.94          1.100        0.000
  WS02006256           JUNCTION        4.07          2.050        0.000
  YS02001580           JUNCTION        0.69          0.450        0.000
  YS02001583           JUNCTION        0.69          0.500        0.000
  YS02001586           JUNCTION        0.86          0.510        0.000
  YS02001590           JUNCTION        0.94          0.750        0.000
  YS02001593           JUNCTION        0.94          0.758        0.082
  YS02001596           JUNCTION        1.06          0.978        0.092
  YS02001600           JUNCTION        1.23          1.190        0.000
  YS02001601           JUNCTION        1.64          1.440        0.000
  YS02001602           JUNCTION        1.55          1.270        0.000
  YS02001605           JUNCTION        1.47          1.180        0.000
  YS02001607           JUNCTION        0.93          0.680        0.000
  YS02001610           JUNCTION        0.97          0.680        0.000
  YS02001613           JUNCTION        0.93          0.683        0.017
  YS02001616           JUNCTION        0.88          0.610        0.000
  YS02001619           JUNCTION        0.86          0.610        0.000
  YS02001622           JUNCTION        0.86          0.620        0.000
  YS02001625           JUNCTION        1.07          0.780        0.000
  YS02001629           JUNCTION        0.81          0.470        0.000
  YS02001633           JUNCTION        1.10          1.060        0.000
  YS02001641           JUNCTION        1.05          1.100        0.000
  YS02001644           JUNCTION        1.04          0.920        0.000
  YS02001647           JUNCTION        0.81          0.814        0.086
  YS02001649           JUNCTION        0.97          1.050        0.000
  YS02001652           JUNCTION        0.73          1.130        0.000
  YS02001655           JUNCTION        0.49          1.200        0.000
  YS02001658           JUNCTION        0.22          1.300        0.000
  YS02001661           JUNCTION        0.02          1.390        0.000
  YS02001745           JUNCTION        0.01          1.350        0.000
  YS02001748           JUNCTION        0.15          1.190        0.000
  YS02001751           JUNCTION        0.33          1.200        0.000
  YS02001754           JUNCTION        0.61          1.150        0.000
  YS02001757           JUNCTION        1.06          1.210        0.000
  YS02001759           JUNCTION        0.94          1.208        0.002
  YS02001762           JUNCTION        0.91          1.150        0.000
  YS02001765           JUNCTION        0.84          1.100        0.000
  YS02001767           JUNCTION        0.81          1.030        0.000
  YS02001770           JUNCTION        0.77          0.920        0.000
  YS02001774           JUNCTION        0.88          1.050        0.000
  YS02001779           JUNCTION        0.59          0.680        0.000
  YS02001783           JUNCTION        0.55          0.719        0.881
  YS02001784           JUNCTION        0.53          0.636        0.854
  YS02001786           JUNCTION        0.42          0.441        0.989
  YS02001882           JUNCTION        0.49          0.830        0.000
  YS02001884           JUNCTION        0.50          0.870        0.000
  YS02001887           JUNCTION        0.54          0.912        0.038
  YS02001890           JUNCTION        0.55          0.760        0.000
  YS02001895           JUNCTION        0.48          0.750        0.000
  YS02001898           JUNCTION        0.48          0.740        0.000
  YS02001901           JUNCTION        0.53          0.870        0.000
  YS02001904           JUNCTION        0.52          0.809        0.041
  YS02001907           JUNCTION        0.76          0.950        0.000
  YS02001910           JUNCTION        0.58          1.041        0.059
  YS02001915           JUNCTION        0.49          1.000        0.000
  YS02001918           JUNCTION        0.41          0.810        0.000
  YS02001920           JUNCTION        0.42          1.140        0.000
  YS02001923           JUNCTION        0.04          0.820        0.000
  YS02001926           JUNCTION        0.09          0.900        0.000
  YS02001929           JUNCTION        0.01          0.780        0.000
  YS02006553           JUNCTION        0.78          1.044        0.146
  YS02006556           JUNCTION        0.67          1.075        0.275
  YS02006558           JUNCTION        0.66          1.095        0.305
  YS02006561           JUNCTION        0.37          0.464        0.686
  YS02163301           JUNCTION        1.08          1.000        0.030
  YS02163601           JUNCTION        1.14          1.080        0.000
  YS02164001           JUNCTION        1.05          1.100        0.000
  
  
  *********************
  Node Flooding Summary
  *********************
  
  Flooding refers to all water that overflows a node, whether it ponds or not.
  --------------------------------------------------------------------------
                                                             Total   Maximum
                                 Maximum   Time of Max       Flood    Ponded
                        Hours       Rate    Occurrence      Volume     Depth
  Node                 Flooded       LPS   days hr:min    10^6 ltr    Meters
  --------------------------------------------------------------------------
  WS02006232              0.01      4.54      0  02:36       0.000     0.000
  WS02006234              0.01    117.97      0  01:50       0.000     0.000
  WS02006242              0.01     24.91      0  01:50       0.000     0.000
  WS02006248              0.02     20.68      0  01:50       0.001     0.000
  WS02006249              1.27    102.08      0  02:36       0.305     0.000
  WS02006252              0.01    245.63      0  00:00       0.000     0.000
  WS02006256              1.48    293.19      0  00:00       0.529     0.000
  YS02001580              0.01    104.58      0  01:34       0.001     0.000
  YS02001583              0.01    237.70      0  01:34       0.000     0.000
  YS02001586              0.55    393.84      0  01:41       0.398     0.000
  YS02001590              0.01      5.26      0  01:33       0.000     0.000
  YS02001600              0.01      4.14      0  01:33       0.000     0.000
  YS02001601              0.77   1163.98      0  01:40       1.425     0.000
  YS02001602              0.67     62.00      0  01:48       0.135     0.000
  YS02001605              0.01      4.17      0  01:33       0.000     0.000
  YS02001607              0.01     17.14      0  01:33       0.000     0.000
  YS02001610              0.59    662.82      0  01:41       0.706     0.000
  YS02001616              0.01     49.93      0  01:34       0.000     0.000
  YS02001619              0.01    192.57      0  01:34       0.000     0.000
  YS02001622              0.01    327.39      0  01:34       0.001     0.000
  YS02001625              0.56   1275.71      0  01:42       1.197     0.000
  YS02001629              0.11    370.82      0  01:34       0.064     0.000
  YS02001633              0.01      0.90      0  02:07       0.000     0.000
  YS02001641              0.01      1.28      0  02:07       0.000     0.000
  YS02001644              0.19    891.95      0  01:38       0.313     0.000
  YS02001649              0.01    170.61      0  01:37       0.001     0.000
  YS02001652              0.01    236.25      0  01:35       0.000     0.000
  YS02001655              0.01    417.02      0  01:36       0.001     0.000
  YS02001658              0.01    502.53      0  01:37       0.001     0.000
  YS02001661              0.01    332.77      0  01:37       0.000     0.000
  YS02001745              0.01    250.40      0  01:37       0.000     0.000
  YS02001748              0.01    535.26      0  01:37       0.001     0.000
  YS02001751              0.01    317.49      0  01:36       0.000     0.000
  YS02001754              0.01     82.23      0  01:36       0.000     0.000
  YS02001757              0.01     24.69      0  01:37       0.000     0.000
  YS02001762              0.01      7.32      0  01:37       0.000     0.000
  YS02001765              0.01      3.43      0  01:37       0.000     0.000
  YS02001767              0.01    201.45      0  01:36       0.000     0.000
  YS02001770              0.01    257.80      0  01:36       0.001     0.000
  YS02001774              0.01    263.91      0  01:36       0.000     0.000
  YS02001779              0.16    584.61      0  01:36       0.143     0.000
  YS02001882              0.01     31.82      0  01:35       0.000     0.000
  YS02001884              0.01     75.57      0  01:34       0.000     0.000
  YS02001890              0.15    265.98      0  01:38       0.079     0.000
  YS02001895              0.01    105.27      0  01:35       0.000     0.000
  YS02001898              0.01    258.80      0  01:35       0.001     0.000
  YS02001901              0.01     17.64      0  01:35       0.000     0.000
  YS02001907              0.35   1635.51      0  01:39       1.054     0.000
  YS02001915              0.01    225.23      0  01:35       0.000     0.000
  YS02001918              0.01    287.09      0  01:36       0.004     0.000
  YS02001920              0.01    310.82      0  01:35       0.000     0.000
  YS02001923              0.01    504.27      0  01:36       0.004     0.000
  YS02001926              0.01    847.06      0  01:36       0.003     0.000
  YS02001929              0.01    754.05      0  01:36       0.002     0.000
  YS02163601              0.01      2.95      0  02:04       0.000     0.000
  YS02164001              0.01      2.90      0  02:07       0.000     0.000
  
  
  **********************
  Storage Volume Summary
  **********************
  
  ------------------------------------------------------------------------------------------------
                         Average    Avg   Evap  Exfil     Maximum    Max    Time of Max    Maximum
                          Volume   Pcnt   Pcnt   Pcnt      Volume   Pcnt     Occurrence    Outflow
  Storage Unit           1000 m³   Full   Loss   Loss     1000 m³   Full    days hr:min        LPS
  ------------------------------------------------------------------------------------------------
  CC-storage               2.568   40.1    0.0    0.0       4.782   74.6       0  02:13    1783.53
  JK-storage               0.146   50.1    0.0    0.0       0.212   72.9       0  01:55    2300.00
  XR-storage               0.939   65.2    0.0    0.0       1.111   77.2       0  08:00     380.00
  
  
  ***********************
  Outfall Loading Summary
  ***********************
  
  -----------------------------------------------------------
                         Flow       Avg       Max       Total
                         Freq      Flow      Flow      Volume
  Outfall Node           Pcnt       LPS       LPS    10^6 ltr
  -----------------------------------------------------------
  CC-1                  41.09    683.00    683.00       4.645
  CC-2                  39.41    683.00    683.00       4.456
  JK-1                  17.72   1000.00   1000.00       2.547
  JK-2                   0.24   1000.00   1000.00       0.048
  WSC                   99.93    414.11    752.54       9.607
  -----------------------------------------------------------
  System                39.68   3780.11   3366.23      21.304
  
  
  ********************
  Link Flow Summary
  ********************
  
  -----------------------------------------------------------------------------
                                 Maximum  Time of Max   Maximum    Max/    Max/
                                  |Flow|   Occurrence   |Veloc|    Full    Full
  Link                 Type          LPS  days hr:min     m/sec    Flow   Depth
  -----------------------------------------------------------------------------
  1                    CONDUIT    752.54     0  03:23      3.08    0.26    0.35
  WS02001211WS02001212 CONDUIT    202.12     0  03:39      0.54    0.15    0.51
  WS02001212WS02001213 CONDUIT    204.47     0  03:28      1.04    0.32    0.36
  WS02001213WS02003059 CONDUIT    209.09     0  03:40      0.47    0.35    0.67
  WS02003059WS02003060 CONDUIT    215.87     0  03:40      0.67    0.14    0.58
  WS02003060WS02003069 CONDUIT    750.41     0  03:22      1.77    0.29    0.40
  WS02003066WSF200     CONDUIT    536.22     0  03:22      2.73    0.09    0.23
  WS02003067WS02003066 CONDUIT    536.22     0  03:21      1.21    0.17    0.42
  WS02003069WS02003072 CONDUIT    750.72     0  03:22      1.51    0.36    0.45
  WS02003072WS02003073 CONDUIT    750.72     0  03:23      1.60    1.62    0.43
  WS02004138WS02004139 CONDUIT    190.84     0  00:29      2.17    0.04    0.33
  WS02004139WS02001211 CONDUIT    192.94     0  03:29      0.54    0.24    0.47
  WS02004401WS02004402 CONDUIT    537.47     0  03:00      0.97    0.65    0.86
  WS02004402WS02004403 CONDUIT    537.30     0  03:00      0.97    0.77    0.88
  WS02004403WS02004404 CONDUIT    536.98     0  03:01      0.92    0.39    0.93
  WS02004404WS02004405 CONDUIT    537.05     0  03:01      1.08    5.26    0.96
  WS02004405WS02004406 CONDUIT    537.31     0  03:01      0.99    1.06    0.96
  WS02004406WS02004407 CONDUIT    536.88     0  03:01      1.04    0.24    0.63
  WS02004407WS02004409 CONDUIT    536.71     0  03:01      1.58    0.19    0.48
  WS02004409WS02004410 CONDUIT    536.50     0  03:01      1.05    0.69    0.67
  WS02004410WS02004411 CONDUIT    536.29     0  03:02      1.01    0.73    0.69
  WS02004411WS02004412 CONDUIT    536.25     0  03:02      0.98    0.76    0.69
  WS02004412WS02004413 CONDUIT    536.28     0  03:04      0.82    0.36    0.78
  WS02004413WS02003067 CONDUIT    536.22     0  03:21      1.11    0.23    0.59
  WS02006109WS02006110 CONDUIT    590.69     0  02:36      1.18    1.14    1.00
  WS02006110WS02006113 CONDUIT    584.99     0  02:36      1.41    0.53    0.79
  WS02006111WS02006112 CONDUIT    545.16     0  02:48      1.82    0.26    0.67
  WS02006112WS02006115 CONDUIT    562.71     0  02:37      0.88    0.33    0.87
  WS02006113WS02006111 CONDUIT    564.77     0  02:48      2.49    0.68    0.47
  WS02006115WS02006116 CONDUIT    546.03     0  02:37      1.14    0.70    0.76
  WS02006116WS02004401 CONDUIT    539.69     0  02:37      0.99    0.74    0.84
  WS02006228WS02006109 CONDUIT    586.06     0  02:36      1.17    2.56    1.00
  WS02006229WS02006228 CONDUIT    577.15     0  02:36      1.15    1.91    1.00
  WS02006230WS02006229 CONDUIT    573.93     0  02:36      1.49   12.77    1.00
  WS02006231WS02006230 CONDUIT    578.94     0  01:55      1.57    8.78    1.00
  WS02006232WS02006231 CONDUIT    580.47     0  02:23      1.51    1.22    1.00
  WS02006234WS02006232 CONDUIT    579.47     0  02:23      1.51    1.17    1.00
  WS02006235WS02006234 CONDUIT    573.58     0  02:23      1.49    6.05    1.00
  WS02006238WS02006235 CONDUIT    431.63     0  03:21      1.56    0.96    1.00
  WS02006239WS02006238 CONDUIT    430.84     0  03:21      1.12    1.38    1.00
  WS02006240WS02006239 CONDUIT    429.92     0  03:21      1.24    1.35    1.00
  WS02006242WS02006240 CONDUIT    426.31     0  03:21      1.12    1.69    1.00
  WS02006243WS02006242 CONDUIT    425.45     0  03:21      1.39    0.91    1.00
  WS02006245WS02006243 CONDUIT    424.82     0  03:20      1.45    1.26    1.00
  WS02006247WS02006245 CONDUIT    425.33     0  03:21      1.44    3.37    1.00
  WS02006248WS02006247 CONDUIT    425.81     0  03:21      1.45    0.93    1.00
  WS02006249WS02006248 CONDUIT    424.72     0  03:21      1.37    2.33    1.00
  WS02006251WS02006249 CONDUIT    458.97     0  00:00      1.99    1.32    1.00
  WS02006252WS02006251 CONDUIT    407.64     0  01:41     25.11    1.50    1.00
  WS02006256WS02006235 CONDUIT    289.21     0  01:34      4.23    3.06    1.00
  WSF200WS02003060     CONDUIT    536.32     0  03:05      1.76    0.12    0.32
  YS02001580YS02001583 CONDUIT    163.66     0  01:33      0.88    0.63    1.00
  YS02001583YS02001586 CONDUIT    200.41     0  01:34      0.89    0.30    1.00
  YS02001586YS02001590 CONDUIT    318.08     0  01:51      1.28    0.56    1.00
  YS02001590YS02001593 CONDUIT    318.08     0  01:51      1.12    2.00    1.00
  YS02001593YS02001596 CONDUIT    318.01     0  02:06      1.73    0.50    1.00
  YS02001596YS02001600 CONDUIT    318.29     0  01:51      1.21    0.62    1.00
  YS02001600YS02001601 CONDUIT    318.31     0  01:51      1.13    0.55    1.00
  YS02001601YS02001602 CONDUIT    571.32     0  01:33      2.02    2.06    1.00
  YS02001602YS02001605 CONDUIT    571.31     0  01:33      2.02   12.09    1.00
  YS02001605YS02001607 CONDUIT    571.27     0  01:33      2.02    3.13    1.00
  YS02001607YS02001610 CONDUIT    553.98     0  01:33      0.71    0.53    1.00
  YS02001610YS02001613 CONDUIT    561.47     0  01:33      0.71    0.65    1.00
  YS02001613YS02001616 CONDUIT    578.19     0  01:33      0.74    0.50    1.00
  YS02001616YS02001619 CONDUIT    520.93     0  01:34      0.67    0.90    1.00
  YS02001619YS02001622 CONDUIT    990.95     0  01:34      1.26    1.46    1.00
  YS02001622YS02001625 CONDUIT    965.70     0  01:34      1.23    0.52    1.00
  YS02001625YS02001629 CONDUIT    965.28     0  01:34      1.23    0.46    1.00
  YS02001629YS02163301 CONDUIT    908.30     0  01:34      1.16    1.12    1.00
  YS02001633YS02163601 CONDUIT   1445.11     0  01:35      1.84    1.52    1.00
  YS02001641YS02001644 CONDUIT   1445.00     0  01:35      1.84    4.67    1.00
  YS02001644YS02001647 CONDUIT   1941.54     0  01:35      2.47    1.14    1.00
  YS02001647YS02001649 CONDUIT   1946.50     0  01:35      2.48    1.03    1.00
  YS02001649YS02001757 CONDUIT   2219.47     0  01:35      2.83    1.35    1.00
  YS02001652YS02001649 CONDUIT   1006.96     0  01:38      1.28    0.50    1.00
  YS02001655YS02001652 CONDUIT   1007.43     0  01:38      1.50    0.49    1.00
  YS02001658YS02001655 CONDUIT   1004.32     0  01:38      2.03    0.43    1.00
  YS02001661YS02001658 CONDUIT   1002.85     0  01:38      2.44    0.39    1.00
  YS02001664YS02001661 CONDUIT    999.61     0  01:38      2.54    0.31    0.98
  YS02001745YS02001748 CONDUIT    675.16     0  01:37      2.38    0.26    1.00
  YS02001748YS02001751 CONDUIT    629.43     0  01:37      1.85    0.32    1.00
  YS02001751YS02001754 CONDUIT    628.58     0  01:37      1.51    0.30    1.00
  YS02001754YS02001757 CONDUIT    629.02     0  01:37      0.80    0.25    1.00
  YS02001757CaochengTiaoxuchi CONDUIT   3480.73     0  01:37      4.43    1.51    1.00
  YS02001759YS02001757 CONDUIT   1523.24     0  01:37      1.94    1.08    1.00
  YS02001762YS02001759 CONDUIT    827.53     0  01:37      1.05    0.95    1.00
  YS02001765YS02001762 CONDUIT    828.18     0  01:37      1.05    0.78    1.00
  YS02001767YS02001765 CONDUIT    829.55     0  01:37      1.06    1.04    1.00
  YS02001770YS02001767 CONDUIT    829.79     0  01:37      1.06    3.29    1.00
  YS02001774YS02001770 CONDUIT    610.68     0  01:36      0.78    0.39    1.00
  YS02001779YS02001774 CONDUIT    617.22     0  01:36      0.79    0.31    1.00
  YS02001783YS02001784 CONDUIT   1164.28     0  01:36      2.32    1.60    1.00
  YS02001784YS02001785 CONDUIT   1165.27     0  01:36      2.32    2.71    1.00
  YS02001786YS02001788 CONDUIT   1166.51     0  01:36      2.49    2.25    0.89
  YS02001788YS02001790 CONDUIT   1178.11     0  01:37      2.72    0.87    0.84
  YS02001790YS02001791 CONDUIT   1289.65     0  01:38      3.43    1.40    0.71
  YS02001791YS02001793 CONDUIT   1258.04     0  01:38      6.50    0.54    0.45
  YS02001793JiankangQianchi CONDUIT   1232.46     0  01:38      2.40    0.10    0.65
  YS02001882YS02001884 CONDUIT     95.84     0  01:34      0.18    0.11    1.00
  YS02001884YS02001887 CONDUIT    154.93     0  01:34      0.20    0.21    1.00
  YS02001887YS02001890 CONDUIT    793.45     0  01:38      1.01    1.36    1.00
  YS02001890YS02001895 CONDUIT    601.15     0  01:35      0.77    0.28    1.00
  YS02001895YS02001898 CONDUIT    601.06     0  01:35      0.77    1.04    1.00
  YS02001898YS02001901 CONDUIT    600.86     0  01:35      0.77    0.39    1.00
  YS02001901YS02001904 CONDUIT    599.73     0  01:35      0.76    0.93    1.00
  YS02001904YS02001907 CONDUIT    599.25     0  01:35      0.76    0.21    1.00
  YS02001907YS02006553 CONDUIT    787.77     0  01:58      0.88    0.93    1.00
  YS02001910YS02001907 CONDUIT   1291.88     0  01:39      1.64    0.73    1.00
  YS02001915YS02001910 CONDUIT   1291.71     0  01:39      1.64    0.64    1.00
  YS02001918YS02001915 CONDUIT    726.06     0  01:35      0.93    0.40    1.00
  YS02001920YS02001918 CONDUIT    712.15     0  01:35      0.91    0.69    1.00
  YS02001923YS02001920 CONDUIT    723.32     0  01:35      0.99    0.32    1.00
  YS02001926YS02001923 CONDUIT    963.68     0  01:36      1.39    1.38    1.00
  YS02001929YS02001926 CONDUIT    575.80     0  01:36      1.25    0.27    1.00
  YS02006553YS02006556 CONDUIT    787.09     0  01:58      1.00    0.67    1.00
  YS02006556YS02006558 CONDUIT    787.99     0  01:58      1.00    0.62    1.00
  YS02006558YS02006561 CONDUIT   1168.97     0  01:35      4.13    2.58    1.00
  YS02006561YS02001783 CONDUIT   1164.32     0  01:36      2.32    0.60    1.00
  YS02163301YS02001633 CONDUIT    908.30     0  01:34      1.16    0.85    1.00
  YS02163601YS02164001 CONDUIT   1444.90     0  01:35      1.84    1.28    1.00
  YS02164001YS02001641 CONDUIT   1444.89     0  01:35      1.84    1.97    1.00
  CC-R1                PUMP       683.00     0  00:00              1.00
  CC-R2                PUMP       683.00     0  00:00              1.00
  CC-S1                PUMP       200.00     0  00:00              1.00
  CC-S2                PUMP       200.00     0  00:00              1.00
  JK-R1                PUMP      1000.00     0  00:00              1.00
  JK-R2                PUMP      1000.00     0  00:00              1.00
  JK-S                 PUMP       300.00     0  00:00              1.00
  XR-1                 PUMP        95.00     0  00:00              1.00
  XR-2                 PUMP        95.00     0  00:00              1.00
  XR-3                 PUMP        95.00     0  00:00              1.00
  XR-4                 PUMP        95.00     0  00:00              1.00
  
  
  ***************************
  Flow Classification Summary
  ***************************
  
  -------------------------------------------------------------------------------------
                      Adjusted    ---------- Fraction of Time in Flow Class ---------- 
                       /Actual         Up    Down  Sub   Sup   Up    Down  Norm  Inlet 
  Conduit               Length    Dry  Dry   Dry   Crit  Crit  Crit  Crit  Ltd   Ctrl  
  -------------------------------------------------------------------------------------
  1                       1.00   0.00  0.00  0.00  0.00  1.00  0.00  0.00  0.18  0.00
  WS02001211WS02001212    1.00   0.00  0.02  0.00  0.98  0.00  0.00  0.00  0.00  0.00
  WS02001212WS02001213    1.00   0.02  0.00  0.00  0.23  0.00  0.74  0.00  0.00  0.00
  WS02001213WS02003059    1.00   0.00  0.01  0.00  0.99  0.00  0.00  0.00  0.00  0.00
  WS02003059WS02003060    1.00   0.00  0.00  0.00  1.00  0.00  0.00  0.00  0.03  0.00
  WS02003060WS02003069    1.00   0.00  0.00  0.00  0.98  0.02  0.00  0.00  0.68  0.00
  WS02003066WSF200        1.00   0.13  0.00  0.00  0.00  0.87  0.00  0.00  0.71  0.00
  WS02003067WS02003066    1.00   0.10  0.02  0.00  0.88  0.00  0.00  0.00  0.00  0.00
  WS02003069WS02003072    1.00   0.00  0.00  0.00  1.00  0.00  0.00  0.00  0.74  0.00
  WS02003072WS02003073    1.00   0.00  0.00  0.00  0.00  0.00  0.00  1.00  0.00  0.00
  WS02004138WS02004139    1.00   0.00  0.00  0.00  0.97  0.01  0.00  0.02  0.98  0.00
  WS02004139WS02001211    1.00   0.00  0.00  0.00  0.99  0.00  0.00  0.00  0.00  0.00
  WS02004401WS02004402    1.00   0.02  0.00  0.00  0.98  0.00  0.00  0.00  0.00  0.00
  WS02004402WS02004403    1.00   0.02  0.00  0.00  0.97  0.00  0.00  0.00  0.00  0.00
  WS02004403WS02004404    1.00   0.00  0.03  0.00  0.97  0.00  0.00  0.00  0.00  0.00
  WS02004404WS02004405    1.00   0.00  0.00  0.00  1.00  0.00  0.00  0.00  0.00  0.00
  WS02004405WS02004406    1.00   0.00  0.00  0.00  1.00  0.00  0.00  0.00  0.00  0.00
  WS02004406WS02004407    1.00   0.00  0.05  0.00  0.95  0.00  0.00  0.00  0.00  0.00
  WS02004407WS02004409    1.00   0.05  0.00  0.00  0.94  0.01  0.00  0.00  0.94  0.00
  WS02004409WS02004410    1.00   0.05  0.00  0.00  0.95  0.00  0.00  0.00  0.03  0.00
  WS02004410WS02004411    1.00   0.05  0.00  0.00  0.95  0.00  0.00  0.00  0.01  0.00
  WS02004411WS02004412    1.00   0.05  0.00  0.00  0.95  0.00  0.00  0.00  0.00  0.00
  WS02004412WS02004413    1.00   0.05  0.00  0.00  0.94  0.00  0.00  0.00  0.01  0.00
  WS02004413WS02003067    1.00   0.06  0.04  0.00  0.00  0.00  0.90  0.00  0.00  0.00
  WS02006109WS02006110    1.00   0.00  0.01  0.00  0.98  0.00  0.01  0.00  0.00  0.00
  WS02006110WS02006113    1.00   0.01  0.01  0.00  0.98  0.00  0.00  0.00  0.00  0.00
  WS02006111WS02006112    1.00   0.02  0.00  0.00  0.98  0.00  0.00  0.00  0.98  0.00
  WS02006112WS02006115    1.00   0.02  0.00  0.00  0.97  0.00  0.00  0.00  0.00  0.00
  WS02006113WS02006111    1.00   0.02  0.00  0.00  0.00  0.98  0.00  0.00  0.09  0.00
  WS02006115WS02006116    1.00   0.02  0.00  0.00  0.97  0.00  0.00  0.01  0.00  0.00
  WS02006116WS02004401    1.00   0.02  0.00  0.00  0.98  0.00  0.00  0.00  0.00  0.00
  WS02006228WS02006109    1.00   0.00  0.00  0.00  1.00  0.00  0.00  0.00  0.00  0.00
  WS02006229WS02006228    1.00   0.00  0.00  0.00  0.99  0.00  0.00  0.01  0.00  0.00
  WS02006230WS02006229    1.00   0.00  0.00  0.00  0.99  0.00  0.00  0.01  0.00  0.00
  WS02006231WS02006230    1.00   0.00  0.00  0.00  0.23  0.00  0.77  0.00  0.00  0.00
  WS02006232WS02006231    1.00   0.00  0.00  0.00  0.99  0.00  0.01  0.00  0.00  0.00
  WS02006234WS02006232    1.00   0.00  0.00  0.00  1.00  0.00  0.00  0.00  0.35  0.00
  WS02006235WS02006234    1.00   0.00  0.00  0.00  0.59  0.00  0.41  0.00  0.00  0.00
  WS02006238WS02006235    1.00   0.00  0.00  0.00  1.00  0.00  0.00  0.00  0.00  0.00
  WS02006239WS02006238    1.00   0.00  0.00  0.00  1.00  0.00  0.00  0.00  0.50  0.00
  WS02006240WS02006239    1.00   0.00  0.00  0.00  0.43  0.00  0.00  0.57  0.01  0.00
  WS02006242WS02006240    1.00   0.00  0.00  0.00  1.00  0.00  0.00  0.00  0.00  0.00
  WS02006243WS02006242    1.00   0.00  0.00  0.00  0.99  0.00  0.00  0.01  0.71  0.00
  WS02006245WS02006243    1.00   0.00  0.00  0.00  0.49  0.00  0.00  0.51  0.01  0.00
  WS02006247WS02006245    1.00   0.00  0.00  0.00  0.99  0.00  0.00  0.01  0.00  0.00
  WS02006248WS02006247    1.00   0.00  0.00  0.00  0.99  0.00  0.00  0.01  0.23  0.00
  WS02006249WS02006248    1.00   0.00  0.00  0.00  0.34  0.00  0.66  0.00  0.00  0.00
  WS02006251WS02006249    1.00   0.00  0.00  0.00  0.99  0.01  0.00  0.00  0.70  0.00
  WS02006252WS02006251    1.00   0.00  0.22  0.00  0.16  0.00  0.62  0.00  0.01  0.00
  WS02006256WS02006235    1.00   0.00  0.00  0.00  0.99  0.01  0.00  0.00  0.00  0.00
  WSF200WS02003060        1.00   0.00  0.13  0.00  0.66  0.22  0.00  0.00  0.64  0.00
  YS02001580YS02001583    1.00   0.19  0.60  0.00  0.21  0.00  0.00  0.00  0.69  0.00
  YS02001583YS02001586    1.00   0.48  0.25  0.00  0.26  0.00  0.00  0.00  0.69  0.00
  YS02001586YS02001590    1.00   0.13  0.00  0.00  0.40  0.04  0.00  0.43  0.31  0.00
  YS02001590YS02001593    1.00   0.13  0.01  0.00  0.13  0.00  0.74  0.00  0.00  0.00
  YS02001593YS02001596    1.00   0.13  0.00  0.00  0.15  0.01  0.00  0.70  0.02  0.00
  YS02001596YS02001600    1.00   0.13  0.00  0.00  0.22  0.01  0.00  0.64  0.04  0.00
  YS02001600YS02001601    1.00   0.13  0.01  0.00  0.86  0.00  0.00  0.00  0.60  0.00
  YS02001601YS02001602    1.00   0.13  0.01  0.00  0.87  0.00  0.00  0.00  0.00  0.00
  YS02001602YS02001605    1.00   0.13  0.00  0.00  0.87  0.00  0.00  0.00  0.00  0.00
  YS02001605YS02001607    1.00   0.13  0.00  0.00  0.87  0.00  0.00  0.00  0.00  0.00
  YS02001607YS02001610    1.00   0.13  0.00  0.00  0.86  0.00  0.00  0.00  0.01  0.00
  YS02001610YS02001613    1.00   0.13  0.00  0.00  0.87  0.00  0.00  0.00  0.00  0.00
  YS02001613YS02001616    1.00   0.13  0.00  0.00  0.87  0.00  0.00  0.00  0.00  0.00
  YS02001616YS02001619    1.00   0.13  0.00  0.00  0.87  0.00  0.00  0.00  0.00  0.00
  YS02001619YS02001622    1.00   0.13  0.00  0.00  0.87  0.00  0.00  0.00  0.34  0.00
  YS02001622YS02001625    1.00   0.13  0.00  0.00  0.87  0.00  0.00  0.00  0.03  0.00
  YS02001625YS02001629    1.00   0.13  0.04  0.00  0.19  0.00  0.65  0.00  0.00  0.00
  YS02001629YS02163301    1.00   0.14  0.01  0.00  0.85  0.00  0.00  0.00  0.00  0.00
  YS02001633YS02163601    1.00   0.00  0.01  0.00  0.99  0.00  0.00  0.00  0.14  0.00
  YS02001641YS02001644    1.00   0.00  0.01  0.00  0.99  0.00  0.00  0.00  0.00  0.00
  YS02001644YS02001647    1.00   0.00  0.16  0.00  0.84  0.00  0.00  0.00  0.00  0.00
  YS02001647YS02001649    1.00   0.00  0.16  0.00  0.60  0.24  0.00  0.00  0.58  0.00
  YS02001649YS02001757    1.00   0.00  0.00  0.00  0.73  0.27  0.00  0.00  0.52  0.00
  YS02001652YS02001649    1.00   0.00  0.00  0.00  0.97  0.03  0.00  0.00  0.73  0.00
  YS02001655YS02001652    1.00   0.00  0.00  0.00  0.20  0.01  0.00  0.79  0.05  0.00
  YS02001658YS02001655    1.00   0.00  0.14  0.00  0.70  0.16  0.00  0.00  0.67  0.00
  YS02001661YS02001658    1.00   0.14  0.00  0.00  0.56  0.30  0.00  0.00  0.71  0.00
  YS02001664YS02001661    1.00   0.13  0.00  0.00  0.75  0.12  0.00  0.00  0.85  0.00
  YS02001745YS02001748    1.00   0.00  0.00  0.00  0.12  0.01  0.00  0.87  0.06  0.00
  YS02001748YS02001751    1.00   0.00  0.00  0.00  0.86  0.14  0.00  0.00  0.77  0.00
  YS02001751YS02001754    1.00   0.00  0.00  0.00  0.18  0.00  0.00  0.82  0.02  0.00
  YS02001754YS02001757    1.00   0.00  0.00  0.00  1.00  0.00  0.00  0.00  0.81  0.00
  YS02001757CaochengTiaoxuchi    1.00   0.00  0.00  0.00  1.00  0.00  0.00  0.00  0.80  0.00
  YS02001759YS02001757    1.00   0.00  0.00  0.00  0.98  0.02  0.00  0.00  0.62  0.00
  YS02001762YS02001759    1.00   0.00  0.00  0.00  1.00  0.00  0.00  0.00  0.03  0.00
  YS02001765YS02001762    1.00   0.00  0.00  0.00  1.00  0.00  0.00  0.00  0.72  0.00
  YS02001767YS02001765    1.00   0.00  0.00  0.00  1.00  0.00  0.00  0.00  0.00  0.00
  YS02001770YS02001767    1.00   0.00  0.00  0.00  1.00  0.00  0.00  0.00  0.00  0.00
  YS02001774YS02001770    1.00   0.00  0.13  0.00  0.61  0.00  0.26  0.00  0.02  0.00
  YS02001779YS02001774    1.00   0.00  0.00  0.00  1.00  0.00  0.00  0.00  0.77  0.00
  YS02001783YS02001784    1.00   0.00  0.16  0.00  0.84  0.00  0.00  0.00  0.57  0.00
  YS02001784YS02001785    1.00   0.00  0.00  0.00  1.00  0.00  0.00  0.00  0.15  0.00
  YS02001786YS02001788    1.00   0.00  0.00  0.00  0.79  0.21  0.00  0.00  0.00  0.00
  YS02001788YS02001790    1.00   0.00  0.00  0.00  0.20  0.80  0.00  0.00  0.79  0.00
  YS02001790YS02001791    1.00   0.00  0.00  0.00  0.01  0.99  0.00  0.00  0.17  0.00
  YS02001791YS02001793    1.00   0.00  0.00  0.00  0.00  1.00  0.00  0.00  0.01  0.00
  YS02001793JiankangQianchi    1.00   0.00  0.00  0.00  0.99  0.01  0.00  0.00  0.94  0.00
  YS02001882YS02001884    1.00   0.14  0.01  0.00  0.85  0.00  0.00  0.00  0.00  0.00
  YS02001884YS02001887    1.00   0.06  0.05  0.00  0.89  0.00  0.00  0.00  0.00  0.00
  YS02001887YS02001890    1.00   0.00  0.00  0.00  0.97  0.00  0.03  0.00  0.00  0.00
  YS02001890YS02001895    1.00   0.00  0.15  0.00  0.85  0.00  0.00  0.00  0.00  0.00
  YS02001895YS02001898    1.00   0.15  0.00  0.00  0.83  0.00  0.01  0.00  0.00  0.00
  YS02001898YS02001901    1.00   0.16  0.00  0.00  0.84  0.00  0.00  0.00  0.01  0.00
  YS02001901YS02001904    1.00   0.16  0.00  0.00  0.84  0.00  0.00  0.00  0.00  0.00
  YS02001904YS02001907    1.00   0.00  0.15  0.00  0.85  0.00  0.00  0.00  0.00  0.00
  YS02001907YS02006553    1.00   0.00  0.02  0.00  0.98  0.00  0.00  0.00  0.00  0.00
  YS02001910YS02001907    1.00   0.00  0.00  0.00  0.97  0.00  0.00  0.03  0.12  0.00
  YS02001915YS02001910    1.00   0.00  0.00  0.00  0.97  0.03  0.00  0.00  0.13  0.00
  YS02001918YS02001915    1.00   0.00  0.01  0.00  0.98  0.02  0.00  0.00  0.74  0.00
  YS02001920YS02001918    1.00   0.00  0.01  0.00  0.99  0.00  0.00  0.00  0.00  0.00
  YS02001923YS02001920    1.00   0.00  0.00  0.00  1.00  0.00  0.00  0.00  0.92  0.00
  YS02001926YS02001923    1.00   0.00  0.07  0.00  0.06  0.00  0.86  0.00  0.00  0.00
  YS02001929YS02001926    1.00   0.00  0.13  0.00  0.87  0.00  0.00  0.00  0.82  0.00
  YS02006553YS02006556    1.00   0.01  0.00  0.00  0.99  0.00  0.00  0.00  0.03  0.00
  YS02006556YS02006558    1.00   0.00  0.00  0.00  1.00  0.00  0.00  0.00  0.00  0.00
  YS02006558YS02006561    1.00   0.16  0.00  0.00  0.06  0.78  0.00  0.00  0.18  0.00
  YS02006561YS02001783    1.00   0.16  0.00  0.00  0.09  0.75  0.00  0.00  0.69  0.00
  YS02163301YS02001633    1.00   0.00  0.14  0.00  0.86  0.00  0.00  0.00  0.00  0.00
  YS02163601YS02164001    1.00   0.00  0.08  0.00  0.92  0.00  0.00  0.00  0.00  0.00
  YS02164001YS02001641    1.00   0.01  0.07  0.00  0.92  0.00  0.00  0.00  0.05  0.00
  
  
  *************************
  Conduit Surcharge Summary
  *************************
  
  ----------------------------------------------------------------------------
                                                           Hours        Hours 
                         --------- Hours Full --------   Above Full   Capacity
  Conduit                Both Ends  Upstream  Dnstream   Normal Flow   Limited
  ----------------------------------------------------------------------------
  WS02003072WS02003073        0.01      0.01      0.01      1.87         0.01
  WS02004404WS02004405        0.01      0.01      0.01      2.09         0.01
  WS02004405WS02004406        0.01      0.01      0.01      1.04         0.01
  WS02006109WS02006110        1.03      1.03      1.79      1.18         0.01
  WS02006110WS02006113        0.01      0.01      1.78      0.01         0.01
  WS02006111WS02006112        0.01      0.01      1.84      0.01         0.01
  WS02006112WS02006115        0.01      0.01      1.16      0.01         0.01
  WS02006228WS02006109        1.77      1.79      1.77      1.88         1.76
  WS02006229WS02006228        1.76      1.77      1.76      1.83         1.75
  WS02006230WS02006229        1.80      1.81      1.80      2.63         1.80
  WS02006231WS02006230        1.04      1.04      1.27      2.32         0.01
  WS02006232WS02006231        1.21      1.21      1.79      1.28         0.01
  WS02006234WS02006232        1.70      1.70      1.79      1.27         1.25
  WS02006235WS02006234        1.47      1.48      1.71      2.21         0.02
  WS02006238WS02006235        1.74      1.74      1.79      0.01         0.01
  WS02006239WS02006238        1.77      1.79      1.77      1.79         1.60
  WS02006240WS02006239        1.74      1.77      1.75      1.79         1.51
  WS02006242WS02006240        1.76      1.76      1.79      1.87         0.01
  WS02006243WS02006242        1.76      1.76      1.78      0.01         0.06
  WS02006245WS02006243        1.76      1.76      1.76      0.71         0.72
  WS02006247WS02006245        1.75      1.76      1.75      1.96         1.74
  WS02006248WS02006247        1.75      1.75      1.76      0.01         0.06
  WS02006249WS02006248        1.75      1.75      1.75      1.95         0.01
  WS02006251WS02006249        1.75      1.75      1.75      1.86         1.67
  WS02006252WS02006251        1.94      1.94      1.94      1.94         0.01
  WS02006256WS02006235        2.21      2.25      4.04      1.48         0.01
  YS02001580YS02001583        0.68      0.69      0.75      0.01         0.01
  YS02001583YS02001586        0.69      0.69      0.86      0.01         0.01
  YS02001586YS02001590        0.86      0.86      0.94      0.01         0.01
  YS02001590YS02001593        0.94      0.94      0.96      1.01         0.01
  YS02001593YS02001596        0.95      0.95      1.06      0.01         0.01
  YS02001596YS02001600        1.11      1.11      1.23      0.01         0.01
  YS02001600YS02001601        1.31      1.31      1.64      0.01         0.01
  YS02001601YS02001602        1.55      1.55      1.67      1.23         0.01
  YS02001602YS02001605        1.47      1.47      1.55      2.24         0.01
  YS02001605YS02001607        1.41      1.47      1.41      1.63         1.41
  YS02001607YS02001610        0.93      0.93      0.97      0.01         0.01
  YS02001610YS02001613        0.93      0.93      0.97      0.01         0.01
  YS02001613YS02001616        0.88      0.88      0.93      0.01         0.01
  YS02001616YS02001619        0.86      0.86      0.88      0.01         0.02
  YS02001619YS02001622        0.86      0.86      0.86      0.92         0.80
  YS02001622YS02001625        0.86      0.86      1.07      0.01         0.01
  YS02001625YS02001629        0.81      0.81      1.07      0.01         0.01
  YS02001629YS02163301        1.07      1.07      1.08      0.02         0.13
  YS02001633YS02163601        1.10      1.10      1.13      0.35         0.32
  YS02001641YS02001644        1.04      1.05      1.04      1.69         1.02
  YS02001644YS02001647        0.81      0.81      1.04      0.04         0.01
  YS02001647YS02001649        0.81      0.81      0.97      0.01         0.01
  YS02001649YS02001757        0.97      0.97      1.06      0.04         0.06
  YS02001652YS02001649        0.77      0.77      0.97      0.01         0.01
  YS02001655YS02001652        0.49      0.49      0.73      0.01         0.01
  YS02001658YS02001655        0.22      0.22      0.49      0.01         0.01
  YS02001661YS02001658        0.02      0.02      0.22      0.01         0.01
  YS02001664YS02001661        0.01      0.01      0.05      0.01         0.01
  YS02001745YS02001748        0.01      0.01      0.15      0.01         0.01
  YS02001748YS02001751        0.19      0.19      0.33      0.01         0.01
  YS02001751YS02001754        0.33      0.33      0.61      0.01         0.01
  YS02001754YS02001757        0.67      0.67      1.06      0.01         0.01
  YS02001757CaochengTiaoxuchi        1.03      1.06      1.55      0.37         0.32
  YS02001759YS02001757        0.94      0.94      1.06      0.01         0.02
  YS02001762YS02001759        0.91      0.91      0.94      0.01         0.02
  YS02001765YS02001762        0.84      0.84      0.91      0.01         0.01
  YS02001767YS02001765        0.81      0.81      0.84      0.01         0.02
  YS02001770YS02001767        0.80      0.80      0.81      0.56         0.53
  YS02001774YS02001770        0.77      0.77      0.88      0.01         0.01
  YS02001779YS02001774        0.59      0.59      0.88      0.01         0.01
  YS02001783YS02001784        0.53      0.55      0.53      0.70         0.53
  YS02001784YS02001785        0.42      0.53      0.42      0.97         0.42
  YS02001786YS02001788        0.01      0.42      0.01      0.81         0.01
  YS02001790YS02001791        0.01      0.01      0.01      0.51         0.01
  YS02001793JiankangQianchi        0.01      0.01      7.69      0.01         0.01
  YS02001882YS02001884        0.49      0.49      0.50      0.01         0.01
  YS02001884YS02001887        0.53      0.53      0.54      0.01         0.01
  YS02001887YS02001890        0.55      0.55      0.56      0.12         0.01
  YS02001890YS02001895        0.48      0.48      0.58      0.01         0.01
  YS02001895YS02001898        0.48      0.48      0.48      0.01         0.01
  YS02001898YS02001901        0.48      0.48      0.53      0.01         0.01
  YS02001901YS02001904        0.52      0.52      0.53      0.01         0.01
  YS02001904YS02001907        0.52      0.52      0.78      0.01         0.01
  YS02001907YS02006553        0.99      0.99      1.07      0.01         0.01
  YS02001910YS02001907        0.58      0.58      0.76      0.01         0.01
  YS02001915YS02001910        0.49      0.49      0.58      0.01         0.01
  YS02001918YS02001915        0.41      0.41      0.49      0.01         0.01
  YS02001920YS02001918        0.40      0.41      0.42      0.01         0.01
  YS02001923YS02001920        0.36      0.36      0.42      0.01         0.01
  YS02001926YS02001923        0.04      0.04      0.09      0.01         0.01
  YS02001929YS02001926        0.01      0.01      0.09      0.01         0.01
  YS02006553YS02006556        0.67      0.67      0.78      0.01         0.01
  YS02006556YS02006558        0.72      0.72      0.81      0.01         0.01
  YS02006558YS02006561        0.44      0.66      0.44      0.92         0.44
  YS02006561YS02001783        0.37      0.37      0.55      0.01         0.01
  YS02163301YS02001633        1.08      1.08      1.12      0.01         0.01
  YS02163601YS02164001        1.05      1.05      1.13      0.04         0.01
  YS02164001YS02001641        1.05      1.05      1.05      0.80         0.76
  
  
  ***************
  Pumping Summary
  ***************
  
  ---------------------------------------------------------------------------------------------------------
                                                  Min       Avg       Max     Total     Power    % Time Off
                        Percent   Number of      Flow      Flow      Flow    Volume     Usage    Pump Curve
  Pump                 Utilized   Start-Ups       LPS       LPS       LPS  10^6 ltr     Kw-hr    Low   High
  ---------------------------------------------------------------------------------------------------------
  CC-R1                   23.61          12      0.00    683.00    683.00     4.643     86.52    0.0   20.9
  CC-R2                   22.64          12      0.00    683.00    683.00     4.454     83.02    0.0   21.8
  CC-S1                   25.19          12      0.00    200.00    200.00     1.451      8.11    0.0    0.0
  CC-S2                   24.26          12      0.00    200.00    200.00     1.398      7.79    0.0    0.0
  JK-R1                    8.83          14      0.00   1000.00   1000.00     2.544     30.65    0.0    0.0
  JK-R2                    0.16           1      0.00   1000.00   1000.00     0.047      0.36    0.0    0.0
  JK-S                    18.54          17      0.00    300.00    300.00     1.601     21.90    0.0    0.0
  XR-1                    97.91           2      0.00     95.00     95.00     2.679      9.60    0.0    0.0
  XR-2                    93.94           2      0.00     95.00     95.00     2.570      8.76    0.0    0.0
  XR-3                     0.00           1      0.00     95.00     95.00     0.000      0.00    0.0    0.0
  XR-4                     0.00           1      0.00     95.00     95.00     0.000      0.00    0.0    0.0
  

  Analysis begun on:  Wed Nov  5 16:31:52 2025
  Analysis ended on:  Wed Nov  5 16:31:55 2025
  Total elapsed time: 00:00:03