
  EPA STORM WATER MANAGEMENT MODEL - VERSION 5.2 (Build 5.2.4)
  PYSWMM TOOLKIT API - VERSION v1.0 (2023-11-27)
  ------------------------------------------------------------

  WARNING 04: minimum elevation drop used for Conduit WS02004404WS02004405
  WARNING 03: negative offset ignored for Link YS02001904YS02001907
  
  ****************
  Analysis Options
  ****************
  Flow Units ............... LPS
  Process Models:
    Rainfall/Runoff ........ YES
    RDII ................... NO
    Snowmelt ............... NO
    Groundwater ............ NO
    Flow Routing ........... YES
    Ponding Allowed ........ NO
    Water Quality .......... NO
  Infiltration Method ...... HORTON
  Flow Routing Method ...... DYNWAVE
  Surcharge Method ......... EXTRAN
  Starting Date ............ 08/28/2015 08:00:00
  Ending Date .............. 08/28/2015 16:00:00
  Antecedent Dry Days ...... 8.0
  Report Time Step ......... 00:01:00
  Wet Time Step ............ 00:01:00
  Dry Time Step ............ 00:01:00
  Routing Time Step ........ 30.00 sec
  Variable Time Step ....... YES
  Maximum Trials ........... 8
  Number of Threads ........ 4
  Head Tolerance ........... 0.001500 m
  
  
  **************************        Volume         Depth
  Runoff Quantity Continuity     hectare-m            mm
  **************************     ---------       -------
  Initial LID Storage ......         0.049         1.488
  Total Precipitation ......         2.024        61.026
  Evaporation Loss .........         0.000         0.000
  Infiltration Loss ........         0.076         2.292
  Surface Runoff ...........         1.496        45.104
  Final Storage ............         0.502        15.140
  Continuity Error (%) .....        -0.037
  
  
  **************************        Volume        Volume
  Flow Routing Continuity        hectare-m      10^6 ltr
  **************************     ---------     ---------
  Dry Weather Inflow .......         0.602         6.020
  Wet Weather Inflow .......         1.496        14.961
  Groundwater Inflow .......         0.000         0.000
  RDII Inflow ..............         0.000         0.000
  External Inflow ..........         0.105         1.045
  External Outflow .........         1.842        18.423
  Flooding Loss ............         0.333         3.330
  Evaporation Loss .........         0.000         0.000
  Exfiltration Loss ........         0.000         0.000
  Initial Stored Volume ....         0.303         3.031
  Final Stored Volume ......         0.337         3.370
  Continuity Error (%) .....        -0.259
  
  
  *************************
  Highest Continuity Errors
  *************************
  Node YS02001583 (-9.38%)
  Node YS02001884 (4.87%)
  Node YS02001774 (1.73%)
  
  
  ***************************
  Time-Step Critical Elements
  ***************************
  Link WS02004404WS02004405 (46.16%)
  Link WS02006238WS02006235 (16.15%)
  Link YS02001791YS02001793 (10.27%)
  Link WS02006252WS02006251 (7.10%)
  Link YS02006556YS02006558 (3.61%)
  
  
  ********************************
  Highest Flow Instability Indexes
  ********************************
  Link WS02006113WS02006111 (28)
  Link WS02006252WS02006251 (18)
  Link WS02006111WS02006112 (17)
  Link WS02006238WS02006235 (16)
  Link YS02001607YS02001610 (14)
  
  
  *********************************
  Most Frequent Nonconverging Nodes
  *********************************
  Node CC-1 (18.14%)
  Node CC-2 (18.14%)
  Node JK-1 (18.14%)
  Node JK-2 (18.14%)
  Node WSC (18.14%)
  
  
  *************************
  Routing Time Step Summary
  *************************
  Minimum Time Step           :     0.01 sec
  Average Time Step           :     3.59 sec
  Maximum Time Step           :     7.04 sec
  % of Time in Steady State   :     0.00
  Average Iterations per Step :     3.50
  % of Steps Not Converging   :    18.14
  Time Step Frequencies       :
     30.000 - 13.228 sec      :     0.00 %
     13.228 -  5.833 sec      :    31.98 %
      5.833 -  2.572 sec      :    22.66 %
      2.572 -  1.134 sec      :    30.39 %
      1.134 -  0.500 sec      :    14.97 %
  
  
  ***************************
  Subcatchment Runoff Summary
  ***************************
  
  ------------------------------------------------------------------------------------------------------------------------------
                            Total      Total      Total      Total     Imperv       Perv      Total       Total     Peak  Runoff
                           Precip      Runon       Evap      Infil     Runoff     Runoff     Runoff      Runoff   Runoff   Coeff
  Subcatchment                 mm         mm         mm         mm         mm         mm         mm    10^6 ltr      LPS
  ------------------------------------------------------------------------------------------------------------------------------
  sub60                     61.03       0.00       0.00       1.38      40.52       4.27      44.79        0.59   379.05   0.734
  sub61                     61.03       0.00       0.00       2.11      40.48       6.37      46.85        0.86   550.44   0.768
  sub62                     61.03       0.00       0.00       0.94      43.16       2.90      46.06        1.26   751.18   0.755
  sub63                     61.03       0.00       0.00       3.85      34.68      10.64      45.32        1.03   610.60   0.743
  sub64                     61.03       0.00       0.00       1.85      39.48       5.28      44.76        1.08   609.67   0.734
  sub65                     61.03       0.00       0.00       1.70      42.61       4.82      47.43        1.31   710.23   0.777
  sub66                     61.03       0.00       0.00       4.45      33.53       9.58      43.11        2.01   903.26   0.706
  sub67                     61.03       0.00       0.00       0.93      44.25       3.00      47.25        0.88   588.40   0.774
  sub68                     61.03       0.00       0.00       1.62      39.08       4.89      43.96        1.21   749.44   0.720
  sub69                     61.03       0.00       0.00       1.47      41.03       5.78      46.81        1.73   922.83   0.767
  sub70                     61.03       0.00       0.00       4.88      32.87      12.10      44.97        1.30   524.15   0.737
  sub71                     61.03       0.00       0.00       0.86      39.21       2.63      41.83        1.09   619.63   0.685
  sub72                     61.03       0.00       0.00       0.82      42.35       2.44      44.79        0.62   317.23   0.734
  

  ***********************
  LID Performance Summary
  ***********************

  --------------------------------------------------------------------------------------------------------------------
                                         Total      Evap     Infil   Surface    Drain    Initial     Final  Continuity
                                        Inflow      Loss      Loss   Outflow   Outflow   Storage   Storage       Error
  Subcatchment      LID Control             mm        mm        mm        mm        mm        mm        mm           %
  --------------------------------------------------------------------------------------------------------------------
  sub60             GreenRoof            61.03      0.00      0.00      0.00      0.00      7.05     68.13       -0.09
  sub61             GreenRoof            61.03      0.00      0.00      0.00      0.00      7.05     68.13       -0.09
  sub62             GreenRoof            61.03      0.00      0.00      0.00      0.00      7.05     68.13       -0.09
  sub63             GreenRoof            61.03      0.00      0.00      0.00      0.00      7.05     68.13       -0.09
  sub64             GreenRoof            61.03      0.00      0.00      0.00      0.00      7.05     68.13       -0.09
  sub65             GreenRoof            61.03      0.00      0.00      0.00      0.00      7.05     68.13       -0.09
  sub66             GreenRoof            61.03      0.00      0.00      0.00      0.00      7.05     68.13       -0.09
  sub67             GreenRoof            61.03      0.00      0.00      0.00      0.00      7.05     68.13       -0.09
  sub68             GreenRoof            61.03      0.00      0.00      0.00      0.00      7.05     68.13       -0.09
  sub69             GreenRoof            61.03      0.00      0.00      0.00      0.00      7.05     68.13       -0.09
  sub70             GreenRoof            61.03      0.00      0.00      0.00      0.00      7.05     68.13       -0.09
  sub71             GreenRoof            61.03      0.00      0.00      0.00      0.00      7.05     68.13       -0.09
  sub72             GreenRoof            61.03      0.00      0.00      0.00      0.00      7.05     68.13       -0.09
  
  ******************
  Node Depth Summary
  ******************
  
  ---------------------------------------------------------------------------------
                                 Average  Maximum  Maximum  Time of Max    Reported
                                   Depth    Depth      HGL   Occurrence   Max Depth
  Node                 Type       Meters   Meters   Meters  days hr:min      Meters
  ---------------------------------------------------------------------------------
  WS02001211           JUNCTION     0.60     0.64     5.48     0  03:15        0.64
  WS02001212           JUNCTION     0.34     0.38     5.45     0  03:15        0.38
  WS02001213           JUNCTION     0.53     0.65     5.41     0  03:14        0.65
  WS02003059           JUNCTION     0.59     0.72     5.40     0  03:14        0.72
  WS02003060           JUNCTION     0.30     0.45     5.38     0  03:13        0.45
  WS02003066           JUNCTION     0.16     0.30     5.85     0  02:51        0.30
  WS02003067           JUNCTION     0.44     0.70     6.02     0  02:51        0.70
  WS02003069           JUNCTION     0.34     0.51     5.10     0  03:14        0.51
  WS02003072           JUNCTION     0.40     0.58     4.95     0  03:14        0.58
  WS02003073           JUNCTION     0.24     0.35     4.41     0  03:14        0.35
  WS02004138           JUNCTION     0.13     0.14     7.39     0  00:29        0.14
  WS02004139           JUNCTION     0.54     0.58     5.49     0  03:16        0.58
  WS02004401           JUNCTION     0.53     0.85     6.85     0  02:48        0.85
  WS02004402           JUNCTION     0.56     0.88     6.84     0  02:49        0.88
  WS02004403           JUNCTION     0.58     0.89     6.82     0  02:49        0.89
  WS02004404           JUNCTION     0.66     0.96     6.81     0  02:49        0.96
  WS02004405           JUNCTION     0.65     0.96     6.81     0  02:49        0.96
  WS02004406           JUNCTION     0.66     0.96     6.79     0  02:49        0.96
  WS02004407           JUNCTION     0.14     0.30     6.61     0  02:49        0.30
  WS02004409           JUNCTION     0.32     0.67     6.44     0  02:50        0.67
  WS02004410           JUNCTION     0.35     0.68     6.40     0  02:50        0.68
  WS02004411           JUNCTION     0.37     0.69     6.37     0  02:50        0.69
  WS02004412           JUNCTION     0.39     0.70     6.34     0  02:50        0.70
  WS02004413           JUNCTION     0.55     0.86     6.33     0  02:51        0.86
  WS02006109           JUNCTION     0.58     1.30     7.92     0  02:17        1.08
  WS02006110           JUNCTION     0.58     1.40     7.99     0  02:06        0.99
  WS02006111           JUNCTION     0.14     0.29     6.99     0  02:48        0.29
  WS02006112           JUNCTION     0.67     1.08     6.97     0  02:18        1.05
  WS02006113           JUNCTION     0.22     0.46     7.35     0  02:29        0.46
  WS02006115           JUNCTION     0.41     0.75     6.89     0  02:48        0.75
  WS02006116           JUNCTION     0.50     0.83     6.87     0  02:48        0.83
  WS02006228           JUNCTION     0.57     1.50     8.15     0  02:17        1.14
  WS02006229           JUNCTION     0.55     1.55     8.24     0  02:17        1.17
  WS02006230           JUNCTION     0.55     1.86     8.60     0  02:17        1.29
  WS02006231           JUNCTION     0.35     1.48     8.60     0  02:17        1.03
  WS02006232           JUNCTION     0.48     2.18     9.22     0  02:34        2.18
  WS02006234           JUNCTION     0.41     1.96     9.12     0  02:34        1.96
  WS02006235           JUNCTION     0.46     2.00     9.16     0  02:34        2.00
  WS02006238           JUNCTION     0.48     2.15     9.29     0  02:34        2.15
  WS02006239           JUNCTION     0.45     2.03     9.24     0  02:34        2.03
  WS02006240           JUNCTION     0.43     2.10     9.39     0  02:34        2.10
  WS02006242           JUNCTION     0.48     1.55     8.82     0  02:23        1.55
  WS02006243           JUNCTION     0.42     1.48     8.90     0  02:23        1.48
  WS02006245           JUNCTION     0.42     1.56     9.04     0  02:23        1.56
  WS02006247           JUNCTION     0.44     1.47     8.97     0  02:23        1.47
  WS02006248           JUNCTION     0.41     1.10     8.69     0  01:55        1.10
  WS02006249           JUNCTION     0.43     1.09     8.69     0  01:52        1.09
  WS02006251           JUNCTION     0.43     1.75     9.42     0  02:17        1.14
  WS02006252           JUNCTION     0.28     1.50     9.74     0  00:00        0.69
  WS02006256           JUNCTION     1.06     2.35     9.28     0  00:00        2.35
  WSF200               JUNCTION     0.14     0.31     5.54     0  02:53        0.31
  YS02001580           JUNCTION     0.13     1.05     9.59     0  01:46        0.77
  YS02001583           JUNCTION     0.16     1.14     9.64     0  01:46        0.82
  YS02001586           JUNCTION     0.26     1.13     9.30     0  01:45        1.13
  YS02001590           JUNCTION     0.38     1.40     9.26     0  01:44        1.38
  YS02001593           JUNCTION     0.31     1.46     9.32     0  01:44        1.34
  YS02001596           JUNCTION     0.43     1.74     9.16     0  01:45        1.67
  YS02001600           JUNCTION     0.53     1.87     9.00     0  01:44        1.86
  YS02001601           JUNCTION     0.72     2.06     8.90     0  01:44        2.06
  YS02001602           JUNCTION     0.62     1.87     8.77     0  01:46        1.87
  YS02001605           JUNCTION     0.57     1.78     8.68     0  01:46        1.78
  YS02001607           JUNCTION     0.53     1.65     8.50     0  01:46        1.65
  YS02001610           JUNCTION     0.58     1.68     8.48     0  01:46        1.68
  YS02001613           JUNCTION     0.53     1.69     8.54     0  01:46        1.66
  YS02001616           JUNCTION     0.47     1.61     8.52     0  01:46        1.60
  YS02001619           JUNCTION     0.45     1.61     8.54     0  01:46        1.58
  YS02001622           JUNCTION     0.43     1.62     8.52     0  01:46        1.56
  YS02001625           JUNCTION     0.69     1.78     8.38     0  01:46        1.78
  YS02001629           JUNCTION     0.58     1.85     8.40     0  01:46        1.85
  YS02001633           JUNCTION     0.65     2.08     8.53     0  01:47        2.01
  YS02001641           JUNCTION     0.61     1.98     8.42     0  01:47        1.94
  YS02001644           JUNCTION     0.60     1.92     8.35     0  01:47        1.92
  YS02001647           JUNCTION     0.38     1.90     8.51     0  01:47        1.72
  YS02001649           JUNCTION     0.43     1.98     8.37     0  01:50        1.91
  YS02001652           JUNCTION     0.31     1.89     8.48     0  01:50        1.76
  YS02001655           JUNCTION     0.23     1.90     8.75     0  01:49        1.55
  YS02001658           JUNCTION     0.16     1.90     9.04     0  01:49        1.29
  YS02001661           JUNCTION     0.17     1.44     8.84     0  01:50        1.05
  YS02001664           JUNCTION     0.07     0.64     8.57     0  01:50        0.44
  YS02001745           JUNCTION     0.08     0.95     8.47     0  01:49        0.95
  YS02001748           JUNCTION     0.15     1.92     8.99     0  01:49        1.30
  YS02001751           JUNCTION     0.19     1.87     8.74     0  01:49        1.43
  YS02001754           JUNCTION     0.27     1.87     8.48     0  01:49        1.63
  YS02001757           JUNCTION     0.44     2.06     8.32     0  01:49        1.91
  YS02001759           JUNCTION     0.39     2.02     8.39     0  01:49        1.85
  YS02001762           JUNCTION     0.38     2.08     8.48     0  01:49        1.85
  YS02001765           JUNCTION     0.35     2.08     8.53     0  01:49        1.81
  YS02001767           JUNCTION     0.35     2.03     8.52     0  01:49        1.81
  YS02001770           JUNCTION     0.36     1.95     8.44     0  01:49        1.87
  YS02001774           JUNCTION     0.42     2.04     8.46     0  01:49        1.93
  YS02001779           JUNCTION     0.25     1.68     8.37     0  01:48        1.68
  YS02001783           JUNCTION     0.30     1.36     7.50     0  01:48        1.21
  YS02001784           JUNCTION     0.31     1.21     7.28     0  01:48        1.11
  YS02001786           JUNCTION     0.26     0.94     6.97     0  01:48        0.87
  YS02001788           JUNCTION     0.19     0.62     6.60     0  01:50        0.62
  YS02001790           JUNCTION     0.23     0.72     6.37     0  01:50        0.72
  YS02001791           JUNCTION     0.14     0.44     5.91     0  01:49        0.43
  YS02001793           JUNCTION     0.08     0.30     5.13     0  01:51        0.29
  YS02001882           JUNCTION     0.37     1.83     8.55     0  01:47        1.68
  YS02001884           JUNCTION     0.46     1.93     8.55     0  01:47        1.77
  YS02001887           JUNCTION     0.53     2.00     8.54     0  01:47        1.83
  YS02001890           JUNCTION     0.56     1.81     8.32     0  01:47        1.81
  YS02001895           JUNCTION     0.34     1.75     8.50     0  01:47        1.56
  YS02001898           JUNCTION     0.35     1.77     8.51     0  01:47        1.56
  YS02001901           JUNCTION     0.45     1.87     8.48     0  01:47        1.68
  YS02001904           JUNCTION     0.43     1.85     8.48     0  01:47        1.64
  YS02001907           JUNCTION     0.75     1.96     8.25     0  01:47        1.96
  YS02001910           JUNCTION     0.55     2.03     8.54     0  01:47        1.83
  YS02001915           JUNCTION     0.37     2.00     8.72     0  01:47        1.67
  YS02001918           JUNCTION     0.20     1.81     8.88     0  01:49        1.34
  YS02001920           JUNCTION     0.28     2.14     9.15     0  01:49        1.41
  YS02001923           JUNCTION     0.14     2.03     9.29     0  01:49        1.17
  YS02001926           JUNCTION     0.18     1.90     9.35     0  01:49        1.00
  YS02001929           JUNCTION     0.10     1.78     9.47     0  01:49        1.78
  YS02006553           JUNCTION     0.75     2.00     8.29     0  01:48        1.96
  YS02006556           JUNCTION     0.72     2.02     8.33     0  01:48        1.94
  YS02006558           JUNCTION     0.76     2.08     8.35     0  01:48        1.97
  YS02006561           JUNCTION     0.18     1.03     7.69     0  01:48        0.88
  YS02163301           JUNCTION     0.60     1.97     8.48     0  01:47        1.92
  YS02163601           JUNCTION     0.68     2.08     8.48     0  01:47        2.02
  YS02164001           JUNCTION     0.60     2.02     8.48     0  01:47        1.94
  CC-1                 OUTFALL      0.00     0.00     0.00     0  00:00        0.00
  CC-2                 OUTFALL      0.00     0.00     0.00     0  00:00        0.00
  JK-1                 OUTFALL      0.00     0.00     0.00     0  00:00        0.00
  JK-2                 OUTFALL      0.00     0.00     0.00     0  00:00        0.00
  WSC                  OUTFALL      0.24     0.35     1.02     0  03:15        0.35
  CC-storage           STORAGE      0.85     1.58     7.08     0  02:15        1.58
  JK-storage           STORAGE      2.65     4.24     5.04     0  01:51        4.18
  XR-storage           STORAGE      7.80     9.26     7.26     0  08:00        9.26
  
  
  *******************
  Node Inflow Summary
  *******************
  
  -------------------------------------------------------------------------------------------------
                                  Maximum  Maximum                  Lateral       Total        Flow
                                  Lateral    Total  Time of Max      Inflow      Inflow     Balance
                                   Inflow   Inflow   Occurrence      Volume      Volume       Error
  Node                 Type           LPS      LPS  days hr:min    10^6 ltr    10^6 ltr     Percent
  -------------------------------------------------------------------------------------------------
  WS02001211           JUNCTION      7.35   200.63     0  03:25       0.212        5.44       0.611
  WS02001212           JUNCTION      0.00   202.66     0  03:31           0        5.41       0.290
  WS02001213           JUNCTION      0.00   204.92     0  03:30           0        5.39       0.331
  WS02003059           JUNCTION      0.00   211.22     0  03:29           0        5.38       0.591
  WS02003060           JUNCTION     16.53   750.38     0  03:13       0.476        9.08       0.154
  WS02003066           JUNCTION      0.00   536.24     0  02:51           0        3.26       0.037
  WS02003067           JUNCTION      0.00   536.23     0  02:51           0        3.26       0.123
  WS02003069           JUNCTION      0.32   750.69     0  03:13     0.00922        9.07       0.163
  WS02003072           JUNCTION      0.00   750.69     0  03:14           0        9.06       0.223
  WS02003073           JUNCTION      1.82   752.51     0  03:14      0.0524        9.09       0.229
  WS02004138           JUNCTION      0.00   380.00     0  00:00           0        5.25       0.053
  WS02004139           JUNCTION      0.32   191.16     0  00:29     0.00924        5.26       0.509
  WS02004401           JUNCTION      0.00   537.73     0  02:48           0        3.36       0.294
  WS02004402           JUNCTION      0.00   537.22     0  02:48           0        3.35       0.300
  WS02004403           JUNCTION      0.00   537.43     0  02:49           0        3.34       0.294
  WS02004404           JUNCTION      0.16   537.19     0  02:49     0.00467        3.33       0.253
  WS02004405           JUNCTION      0.04   537.07     0  02:49      0.0011        3.33       0.361
  WS02004406           JUNCTION      0.00   537.32     0  02:49           0        3.31       0.613
  WS02004407           JUNCTION      0.00   536.93     0  02:49           0        3.29       0.028
  WS02004409           JUNCTION      0.00   536.78     0  02:49           0        3.29       0.068
  WS02004410           JUNCTION      0.00   536.53     0  02:50           0        3.29       0.118
  WS02004411           JUNCTION      0.00   536.49     0  02:50           0        3.29       0.155
  WS02004412           JUNCTION      0.00   536.34     0  02:50           0        3.28       0.212
  WS02004413           JUNCTION      0.00   536.37     0  02:51           0        3.28       0.382
  WS02006109           JUNCTION      1.23   561.88     0  02:17      0.0354         3.4       0.235
  WS02006110           JUNCTION      0.00   562.33     0  02:17           0        3.39       0.179
  WS02006111           JUNCTION      0.00   561.43     0  02:29           0        3.39       0.021
  WS02006112           JUNCTION      0.00   542.86     0  02:02           0        3.38       0.506
  WS02006113           JUNCTION      0.00   570.07     0  02:18           0        3.39       0.045
  WS02006115           JUNCTION      0.00   554.16     0  02:19           0        3.37       0.182
  WS02006116           JUNCTION      0.00   541.38     0  02:05           0        3.36       0.086
  WS02006228           JUNCTION      0.00   560.39     0  02:17           0        3.37       0.102
  WS02006229           JUNCTION      0.00   560.18     0  02:17           0        3.37       0.117
  WS02006230           JUNCTION     10.28   615.85     0  02:34       0.296        3.38       0.124
  WS02006231           JUNCTION      0.00   643.93     0  02:34           0        3.08      -0.028
  WS02006232           JUNCTION      0.00   639.86     0  02:34           0        3.09       0.211
  WS02006234           JUNCTION      0.00   613.50     0  02:34           0        3.08      -0.208
  WS02006235           JUNCTION      0.00   574.25     0  02:34           0        3.11       0.159
  WS02006238           JUNCTION      0.00   424.20     0  02:10           0        2.17      -0.139
  WS02006239           JUNCTION      0.00   423.99     0  02:25           0        2.14      -0.086
  WS02006240           JUNCTION      0.00   421.62     0  02:25           0        2.13      -0.061
  WS02006242           JUNCTION      0.00   421.64     0  02:25           0        2.11      -0.167
  WS02006243           JUNCTION      0.00   420.99     0  02:25           0        2.11      -0.212
  WS02006245           JUNCTION      0.00   420.34     0  02:10           0        2.12       0.499
  WS02006247           JUNCTION      0.00   420.66     0  02:25           0        2.12      -0.014
  WS02006248           JUNCTION      0.00   420.81     0  02:10           0        2.11      -0.159
  WS02006249           JUNCTION      0.00   458.97     0  00:00           0         2.4       0.634
  WS02006251           JUNCTION      0.08   408.08     0  02:34     0.00222         2.4      -0.002
  WS02006252           JUNCTION      0.00   400.00     0  00:00           0        2.39      -0.292
  WS02006256           JUNCTION      0.00   337.47     0  01:45           0        1.43      -0.750
  WSF200               JUNCTION      0.00   536.26     0  02:51           0        3.26       0.014
  YS02001580           JUNCTION      0.00   142.07     0  01:46           0      0.0045       2.817
  YS02001583           JUNCTION      0.00   237.42     0  01:46           0       0.015      -8.575
  YS02001586           JUNCTION    524.15   524.18     0  01:53         1.3        1.31       0.113
  YS02001590           JUNCTION      0.00   317.91     0  02:02           0        1.15      -0.036
  YS02001593           JUNCTION      0.00   318.08     0  02:02           0        1.15       0.001
  YS02001596           JUNCTION      0.00   317.97     0  02:02           0        1.15      -0.010
  YS02001600           JUNCTION      0.00   318.05     0  02:02           0        1.15       0.002
  YS02001601           JUNCTION    922.83  1240.35     0  01:51        1.73        2.88       0.010
  YS02001602           JUNCTION      0.00   551.71     0  01:45           0        2.02       0.012
  YS02001605           JUNCTION      0.00   551.52     0  01:45           0        1.94       0.008
  YS02001607           JUNCTION      0.00   551.14     0  01:45           0        1.94       0.093
  YS02001610           JUNCTION      0.00   547.77     0  01:45           0        1.95       0.111
  YS02001613           JUNCTION      0.00   554.55     0  01:45           0        1.65       0.091
  YS02001616           JUNCTION      0.00   572.35     0  01:45           0        1.65       0.021
  YS02001619           JUNCTION    903.26   984.48     0  01:46        2.01        3.65      -0.004
  YS02001622           JUNCTION      0.00   998.83     0  01:46           0        3.63      -0.007
  YS02001625           JUNCTION      0.00  1021.52     0  01:53           0        3.66       0.240
  YS02001629           JUNCTION      0.00   954.76     0  01:46           0        3.09       0.012
  YS02001633           JUNCTION    710.43  1445.79     0  01:47        1.31        4.35       0.075
  YS02001641           JUNCTION      0.00  1444.62     0  01:47           0        4.31       0.062
  YS02001644           JUNCTION    609.71  1906.60     0  01:47        1.08        5.38       0.059
  YS02001647           JUNCTION      0.00  1906.60     0  01:47           0        5.32       0.009
  YS02001649           JUNCTION      0.00  2166.37     0  01:48           0        6.36       0.009
  YS02001652           JUNCTION      0.00   785.11     0  01:51           0        1.03      -0.082
  YS02001655           JUNCTION      0.15   785.07     0  01:51     0.00443        1.03      -0.057
  YS02001658           JUNCTION      0.00   783.60     0  01:51           0        1.03      -0.031
  YS02001661           JUNCTION      0.00   783.13     0  01:50           0        1.03       0.016
  YS02001664           JUNCTION    610.60   610.60     0  01:50        1.03        1.03      -0.016
  YS02001745           JUNCTION    379.05   622.46     0  01:49       0.589       0.591       0.235
  YS02001748           JUNCTION      0.04   582.94     0  01:49      0.0013       0.595      -0.421
  YS02001751           JUNCTION      0.01   539.19     0  01:50    0.000317       0.605       0.047
  YS02001754           JUNCTION      0.26   541.26     0  01:50     0.00749       0.622      -0.153
  YS02001757           JUNCTION      0.00  3299.02     0  01:50           0         9.1       0.032
  YS02001759           JUNCTION    550.48  1314.40     0  01:49       0.861        2.13      -0.009
  YS02001762           JUNCTION      0.00   767.13     0  01:49           0        1.27      -0.016
  YS02001765           JUNCTION      0.00   763.23     0  01:49           0        1.27       0.027
  YS02001767           JUNCTION      0.54   759.69     0  01:49      0.0154        1.27      -0.023
  YS02001770           JUNCTION    751.34   751.34     0  01:51        1.27        1.31      -0.054
  YS02001774           JUNCTION      0.00   512.54     0  01:48           0      0.0737       1.758
  YS02001779           JUNCTION      0.01   529.78     0  01:48    0.000144      0.0295      -2.323
  YS02001783           JUNCTION      0.00  1155.33     0  01:49           0        3.37       0.006
  YS02001784           JUNCTION      1.06  1156.27     0  01:49      0.0305         3.4       0.015
  YS02001786           JUNCTION      0.06  1156.28     0  01:49     0.00162         3.4       0.020
  YS02001788           JUNCTION      0.07  1156.92     0  01:48     0.00204         3.4       0.009
  YS02001790           JUNCTION      0.15  1165.27     0  01:51     0.00446        3.41       0.034
  YS02001791           JUNCTION      0.00  1284.61     0  01:50           0         3.4      -0.034
  YS02001793           JUNCTION      0.00  1245.69     0  01:52           0        3.41       0.007
  YS02001882           JUNCTION      0.00    90.75     0  01:47           0      0.0128       4.510
  YS02001884           JUNCTION      0.00   123.62     0  01:47           0      0.0486       5.121
  YS02001887           JUNCTION    588.85   589.08     0  01:49       0.892       0.925       0.471
  YS02001890           JUNCTION      0.00   589.43     0  01:50           0       0.884       0.570
  YS02001895           JUNCTION      0.00   538.88     0  01:48           0       0.869       0.178
  YS02001898           JUNCTION      0.00   539.29     0  01:48           0       0.867      -0.008
  YS02001901           JUNCTION      0.00   538.95     0  01:48           0        0.87       0.368
  YS02001904           JUNCTION      0.00   538.42     0  01:48           0       0.875       0.304
  YS02001907           JUNCTION      0.00  1586.23     0  01:50           0        2.66       0.676
  YS02001910           JUNCTION      0.00  1065.58     0  01:50           0        1.79       0.392
  YS02001915           JUNCTION    619.65  1065.13     0  01:50        1.09        1.84       0.085
  YS02001918           JUNCTION      0.00   560.81     0  01:48           0       0.779       0.053
  YS02001920           JUNCTION      2.87   534.92     0  01:48      0.0827       0.757       0.091
  YS02001923           JUNCTION      0.04   654.45     0  01:48     0.00109       0.657      -0.122
  YS02001926           JUNCTION      0.05   989.37     0  01:48      0.0015       0.636      -0.205
  YS02001929           JUNCTION    317.23   851.60     0  01:48       0.616       0.621      -0.244
  YS02006553           JUNCTION      0.00   788.67     0  02:02           0        2.18       0.536
  YS02006556           JUNCTION      0.00   788.38     0  02:02           0        2.19       0.363
  YS02006558           JUNCTION    750.32  1170.91     0  01:48        1.24         3.4       0.095
  YS02006561           JUNCTION      0.00  1168.59     0  01:48           0        3.37       0.000
  YS02163301           JUNCTION      0.00   930.00     0  01:47           0        3.08       0.043
  YS02163601           JUNCTION      0.11  1445.63     0  01:47     0.00317        4.31       0.111
  YS02164001           JUNCTION      0.00  1445.34     0  01:47           0        4.31       0.052
  CC-1                 OUTFALL       0.00   683.00     0  00:00           0        3.81       0.000
  CC-2                 OUTFALL       0.00   683.00     0  00:00           0        3.61       0.000
  JK-1                 OUTFALL       0.00  1000.00     0  00:00           0        1.88       0.000
  JK-2                 OUTFALL       0.00  1000.00     0  00:00           0      0.0484       0.000
  WSC                  OUTFALL       0.00   752.51     0  03:15           0        9.07       0.000
  CC-storage           STORAGE       0.00  3297.48     0  01:50           0        11.3      -0.227
  JK-storage           STORAGE       0.00  1215.43     0  01:50           0        3.56       0.185
  XR-storage           STORAGE     200.00   200.00     0  00:00        5.76        6.36       0.001
  
  
  **********************
  Node Surcharge Summary
  **********************
  
  Surcharging occurs when water rises above the top of the highest conduit.
  ---------------------------------------------------------------------
                                               Max. Height   Min. Depth
                                   Hours       Above Crown    Below Rim
  Node                 Type      Surcharged         Meters       Meters
  ---------------------------------------------------------------------
  WS02006109           JUNCTION        1.44          0.484        1.336
  WS02006110           JUNCTION        0.95          0.494        1.356
  WS02006112           JUNCTION        1.00          0.084        1.596
  WS02006228           JUNCTION        1.43          0.673        1.527
  WS02006229           JUNCTION        1.44          0.749        1.701
  WS02006230           JUNCTION        0.95          0.778        0.792
  WS02006231           JUNCTION        1.09          0.769        0.761
  WS02006232           JUNCTION        1.45          1.480        0.000
  WS02006234           JUNCTION        1.31          1.240        0.000
  WS02006235           JUNCTION        1.41          1.290        0.000
  WS02006238           JUNCTION        1.44          1.430        0.000
  WS02006239           JUNCTION        1.42          1.290        0.000
  WS02006240           JUNCTION        1.42          1.390        0.000
  WS02006242           JUNCTION        1.44          0.820        0.000
  WS02006243           JUNCTION        1.42          0.770        0.000
  WS02006245           JUNCTION        1.42          0.850        0.000
  WS02006247           JUNCTION        1.42          0.760        0.000
  WS02006248           JUNCTION        1.41          0.380        0.000
  WS02006249           JUNCTION        1.41          0.390        0.000
  WS02006251           JUNCTION        1.15          0.721        0.459
  WS02006252           JUNCTION        1.61          1.100        0.000
  WS02006256           JUNCTION        3.30          2.050        0.000
  YS02001580           JUNCTION        0.47          0.450        0.000
  YS02001583           JUNCTION        0.48          0.500        0.000
  YS02001586           JUNCTION        0.61          0.510        0.000
  YS02001590           JUNCTION        0.67          0.750        0.000
  YS02001593           JUNCTION        0.68          0.840        0.000
  YS02001596           JUNCTION        0.78          1.008        0.062
  YS02001600           JUNCTION        0.92          1.190        0.000
  YS02001601           JUNCTION        1.33          1.440        0.000
  YS02001602           JUNCTION        1.18          1.270        0.000
  YS02001605           JUNCTION        1.11          1.180        0.000
  YS02001607           JUNCTION        0.65          0.648        0.032
  YS02001610           JUNCTION        0.68          0.680        0.000
  YS02001613           JUNCTION        0.64          0.694        0.006
  YS02001616           JUNCTION        0.61          0.610        0.000
  YS02001619           JUNCTION        0.59          0.610        0.000
  YS02001622           JUNCTION        0.59          0.620        0.000
  YS02001625           JUNCTION        0.76          0.780        0.000
  YS02001629           JUNCTION        0.55          0.470        0.000
  YS02001633           JUNCTION        0.78          1.060        0.000
  YS02001641           JUNCTION        0.73          0.982        0.118
  YS02001644           JUNCTION        0.71          0.920        0.000
  YS02001647           JUNCTION        0.51          0.900        0.000
  YS02001649           JUNCTION        0.62          0.980        0.070
  YS02001652           JUNCTION        0.43          0.857        0.273
  YS02001655           JUNCTION        0.28          0.902        0.298
  YS02001658           JUNCTION        0.10          0.903        0.397
  YS02001661           JUNCTION        0.01          0.368        1.022
  YS02001748           JUNCTION        0.02          0.837        0.353
  YS02001751           JUNCTION        0.17          0.865        0.335
  YS02001754           JUNCTION        0.34          0.819        0.331
  YS02001757           JUNCTION        0.69          1.059        0.151
  YS02001759           JUNCTION        0.59          1.022        0.188
  YS02001762           JUNCTION        0.55          1.084        0.066
  YS02001765           JUNCTION        0.51          1.083        0.017
  YS02001767           JUNCTION        0.47          1.030        0.000
  YS02001770           JUNCTION        0.44          0.920        0.000
  YS02001774           JUNCTION        0.54          1.039        0.011
  YS02001779           JUNCTION        0.33          0.680        0.000
  YS02001783           JUNCTION        0.41          0.561        1.039
  YS02001784           JUNCTION        0.38          0.410        1.080
  YS02001786           JUNCTION        0.29          0.138        1.292
  YS02001882           JUNCTION        0.36          0.830        0.000
  YS02001884           JUNCTION        0.37          0.870        0.000
  YS02001887           JUNCTION        0.40          0.950        0.000
  YS02001890           JUNCTION        0.41          0.760        0.000
  YS02001895           JUNCTION        0.35          0.750        0.000
  YS02001898           JUNCTION        0.34          0.740        0.000
  YS02001901           JUNCTION        0.38          0.870        0.000
  YS02001904           JUNCTION        0.37          0.850        0.000
  YS02001907           JUNCTION        0.59          0.950        0.000
  YS02001910           JUNCTION        0.43          1.033        0.067
  YS02001915           JUNCTION        0.35          1.000        0.000
  YS02001918           JUNCTION        0.28          0.810        0.000
  YS02001920           JUNCTION        0.29          1.140        0.000
  YS02001923           JUNCTION        0.01          0.820        0.000
  YS02001926           JUNCTION        0.02          0.900        0.000
  YS02001929           JUNCTION        0.01          0.780        0.000
  YS02006553           JUNCTION        0.59          1.004        0.186
  YS02006556           JUNCTION        0.51          0.983        0.367
  YS02006558           JUNCTION        0.50          0.981        0.419
  YS02006561           JUNCTION        0.24          0.233        0.917
  YS02163301           JUNCTION        0.76          0.966        0.064
  YS02163601           JUNCTION        0.81          1.080        0.000
  YS02164001           JUNCTION        0.73          1.022        0.078
  
  
  *********************
  Node Flooding Summary
  *********************
  
  Flooding refers to all water that overflows a node, whether it ponds or not.
  --------------------------------------------------------------------------
                                                             Total   Maximum
                                 Maximum   Time of Max       Flood    Ponded
                        Hours       Rate    Occurrence      Volume     Depth
  Node                 Flooded       LPS   days hr:min    10^6 ltr    Meters
  --------------------------------------------------------------------------
  WS02006232              0.01      2.61      0  02:34       0.000     0.000
  WS02006234              0.01      9.08      0  02:34       0.000     0.000
  WS02006235              0.01     14.13      0  02:34       0.000     0.000
  WS02006238              0.01     13.86      0  02:34       0.000     0.000
  WS02006239              0.01      6.44      0  02:34       0.000     0.000
  WS02006240              0.01     10.90      0  02:34       0.000     0.000
  WS02006242              0.01     30.56      0  02:34       0.000     0.000
  WS02006243              0.01      4.81      0  02:34       0.000     0.000
  WS02006245              0.01      4.67      0  02:34       0.000     0.000
  WS02006247              0.01      4.20      0  02:34       0.000     0.000
  WS02006248              0.01     22.98      0  02:05       0.001     0.000
  WS02006249              1.12     90.87      0  01:52       0.273     0.000
  WS02006252              0.01    245.63      0  00:00       0.000     0.000
  WS02006256              1.32    332.51      0  01:45       0.477     0.000
  YS02001580              0.01     95.27      0  01:46       0.000     0.000
  YS02001583              0.01    207.52      0  01:46       0.000     0.000
  YS02001586              0.36    206.80      0  01:53       0.153     0.000
  YS02001590              0.01     69.36      0  01:44       0.000     0.000
  YS02001593              0.01     21.73      0  01:44       0.000     0.000
  YS02001600              0.01      3.93      0  01:44       0.000     0.000
  YS02001601              0.53    842.55      0  01:51       0.854     0.000
  YS02001602              0.45     62.19      0  02:06       0.088     0.000
  YS02001605              0.01      3.63      0  01:46       0.000     0.000
  YS02001610              0.38    399.97      0  01:53       0.313     0.000
  YS02001616              0.01     27.19      0  01:46       0.000     0.000
  YS02001619              0.01     16.42      0  01:46       0.000     0.000
  YS02001622              0.01    293.76      0  01:46       0.001     0.000
  YS02001625              0.34   1021.27      0  01:53       0.600     0.000
  YS02001629              0.06    301.15      0  01:46       0.018     0.000
  YS02001633              0.01      3.98      0  01:47       0.000     0.000
  YS02001644              0.07    404.65      0  01:50       0.051     0.000
  YS02001647              0.01     75.66      0  01:47       0.000     0.000
  YS02001767              0.01      8.66      0  01:49       0.000     0.000
  YS02001770              0.01     30.46      0  01:49       0.000     0.000
  YS02001779              0.04    470.73      0  01:48       0.011     0.000
  YS02001882              0.01     70.75      0  01:47       0.000     0.000
  YS02001884              0.01     36.90      0  01:47       0.000     0.000
  YS02001887              0.01     20.66      0  01:47       0.000     0.000
  YS02001890              0.07     77.52      0  01:47       0.010     0.000
  YS02001895              0.01     69.44      0  01:47       0.000     0.000
  YS02001898              0.01    189.54      0  01:47       0.000     0.000
  YS02001901              0.01     10.47      0  01:47       0.000     0.000
  YS02001904              0.01     75.04      0  01:47       0.000     0.000
  YS02001907              0.22   1183.25      0  01:50       0.468     0.000
  YS02001915              0.01    226.49      0  01:47       0.000     0.000
  YS02001918              0.01    257.12      0  01:49       0.004     0.000
  YS02001920              0.01    104.38      0  01:49       0.000     0.000
  YS02001923              0.01    190.02      0  01:49       0.001     0.000
  YS02001926              0.01    307.53      0  01:49       0.002     0.000
  YS02001929              0.01    714.76      0  01:49       0.002     0.000
  YS02163601              0.01      8.01      0  01:47       0.000     0.000
  
  
  **********************
  Storage Volume Summary
  **********************
  
  ------------------------------------------------------------------------------------------------
                         Average    Avg   Evap  Exfil     Maximum    Max    Time of Max    Maximum
                          Volume   Pcnt   Pcnt   Pcnt      Volume   Pcnt     Occurrence    Outflow
  Storage Unit           1000 m³   Full   Loss   Loss     1000 m³   Full    days hr:min        LPS
  ------------------------------------------------------------------------------------------------
  CC-storage               2.357   36.8    0.0    0.0       4.409   68.8       0  02:15    1783.53
  JK-storage               0.133   45.8    0.0    0.0       0.213   73.1       0  01:51    2300.00
  XR-storage               0.936   65.0    0.0    0.0       1.111   77.2       0  08:00     380.00
  
  
  ***********************
  Outfall Loading Summary
  ***********************
  
  -----------------------------------------------------------
                         Flow       Avg       Max       Total
                         Freq      Flow      Flow      Volume
  Outfall Node           Pcnt       LPS       LPS    10^6 ltr
  -----------------------------------------------------------
  CC-1                  35.55    683.00    683.00       3.814
  CC-2                  33.49    683.00    683.00       3.612
  JK-1                  16.35   1000.00   1000.00       1.881
  JK-2                   0.26   1000.00   1000.00       0.048
  WSC                   99.93    391.32    752.51       9.067
  -----------------------------------------------------------
  System                37.11   3757.32   3366.23      18.423
  
  
  ********************
  Link Flow Summary
  ********************
  
  -----------------------------------------------------------------------------
                                 Maximum  Time of Max   Maximum    Max/    Max/
                                  |Flow|   Occurrence   |Veloc|    Full    Full
  Link                 Type          LPS  days hr:min     m/sec    Flow   Depth
  -----------------------------------------------------------------------------
  1                    CONDUIT    752.51     0  03:15      3.08    0.26    0.35
  WS02001211WS02001212 CONDUIT    202.66     0  03:31      0.54    0.15    0.51
  WS02001212WS02001213 CONDUIT    204.92     0  03:30      1.04    0.32    0.36
  WS02001213WS02003059 CONDUIT    211.22     0  03:29      0.47    0.35    0.67
  WS02003059WS02003060 CONDUIT    217.75     0  03:29      0.67    0.14    0.58
  WS02003060WS02003069 CONDUIT    750.37     0  03:13      1.77    0.29    0.40
  WS02003066WSF200     CONDUIT    536.26     0  02:51      2.73    0.09    0.23
  WS02003067WS02003066 CONDUIT    536.24     0  02:51      1.21    0.17    0.42
  WS02003069WS02003072 CONDUIT    750.69     0  03:14      1.51    0.36    0.45
  WS02003072WS02003073 CONDUIT    750.69     0  03:14      1.60    1.62    0.43
  WS02004138WS02004139 CONDUIT    190.84     0  00:29      2.17    0.04    0.33
  WS02004139WS02001211 CONDUIT    193.29     0  03:25      0.54    0.24    0.47
  WS02004401WS02004402 CONDUIT    537.22     0  02:48      0.97    0.64    0.86
  WS02004402WS02004403 CONDUIT    537.43     0  02:49      0.97    0.77    0.88
  WS02004403WS02004404 CONDUIT    537.03     0  02:49      0.92    0.39    0.93
  WS02004404WS02004405 CONDUIT    537.03     0  02:49      1.08    5.26    0.96
  WS02004405WS02004406 CONDUIT    537.32     0  02:49      0.99    1.06    0.96
  WS02004406WS02004407 CONDUIT    536.93     0  02:49      1.04    0.24    0.63
  WS02004407WS02004409 CONDUIT    536.78     0  02:49      1.57    0.19    0.48
  WS02004409WS02004410 CONDUIT    536.53     0  02:50      1.05    0.69    0.67
  WS02004410WS02004411 CONDUIT    536.49     0  02:50      1.00    0.73    0.69
  WS02004411WS02004412 CONDUIT    536.34     0  02:50      0.92    0.76    0.69
  WS02004412WS02004413 CONDUIT    536.37     0  02:51      0.82    0.36    0.78
  WS02004413WS02003067 CONDUIT    536.23     0  02:51      1.11    0.23    0.59
  WS02006109WS02006110 CONDUIT    562.33     0  02:17      1.12    1.08    1.00
  WS02006110WS02006113 CONDUIT    570.07     0  02:18      1.38    0.52    0.78
  WS02006111WS02006112 CONDUIT    542.86     0  02:02      1.82    0.26    0.67
  WS02006112WS02006115 CONDUIT    554.16     0  02:19      0.88    0.33    0.87
  WS02006113WS02006111 CONDUIT    561.43     0  02:29      2.47    0.67    0.46
  WS02006115WS02006116 CONDUIT    541.38     0  02:05      1.10    0.69    0.76
  WS02006116WS02004401 CONDUIT    537.73     0  02:48      0.98    0.74    0.84
  WS02006228WS02006109 CONDUIT    560.65     0  02:17      1.12    2.45    1.00
  WS02006229WS02006228 CONDUIT    560.39     0  02:17      1.15    1.86    1.00
  WS02006230WS02006229 CONDUIT    560.18     0  02:17      1.46   12.47    1.00
  WS02006231WS02006230 CONDUIT    605.57     0  02:34      1.66    9.19    1.00
  WS02006232WS02006231 CONDUIT    643.93     0  02:34      1.68    1.35    1.00
  WS02006234WS02006232 CONDUIT    639.86     0  02:34      1.66    1.29    1.00
  WS02006235WS02006234 CONDUIT    613.50     0  02:34      1.59    6.47    1.00
  WS02006238WS02006235 CONDUIT    424.39     0  02:10      1.56    0.95    1.00
  WS02006239WS02006238 CONDUIT    424.20     0  02:10      1.11    1.36    1.00
  WS02006240WS02006239 CONDUIT    423.99     0  02:25      1.24    1.33    1.00
  WS02006242WS02006240 CONDUIT    421.62     0  02:25      1.12    1.67    1.00
  WS02006243WS02006242 CONDUIT    421.64     0  02:25      1.39    0.90    1.00
  WS02006245WS02006243 CONDUIT    420.99     0  02:25      1.45    1.25    1.00
  WS02006247WS02006245 CONDUIT    420.34     0  02:10      1.44    3.33    1.00
  WS02006248WS02006247 CONDUIT    420.66     0  02:25      1.45    0.92    1.00
  WS02006249WS02006248 CONDUIT    420.81     0  02:10      1.37    2.31    1.00
  WS02006251WS02006249 CONDUIT    458.97     0  00:00      1.99    1.32    1.00
  WS02006252WS02006251 CONDUIT    408.00     0  02:34     25.51    1.50    1.00
  WS02006256WS02006235 CONDUIT    289.22     0  01:44      4.23    3.06    1.00
  WSF200WS02003060     CONDUIT    536.35     0  02:53      1.76    0.12    0.32
  YS02001580YS02001583 CONDUIT    142.07     0  01:46      0.82    0.55    1.00
  YS02001583YS02001586 CONDUIT    187.78     0  01:46      0.82    0.28    1.00
  YS02001586YS02001590 CONDUIT    317.91     0  02:02      1.28    0.56    1.00
  YS02001590YS02001593 CONDUIT    318.08     0  02:02      1.12    2.00    1.00
  YS02001593YS02001596 CONDUIT    317.97     0  02:02      1.74    0.50    1.00
  YS02001596YS02001600 CONDUIT    318.05     0  02:02      1.20    0.62    1.00
  YS02001600YS02001601 CONDUIT    317.94     0  01:51      1.12    0.55    1.00
  YS02001601YS02001602 CONDUIT    551.71     0  01:45      1.95    1.99    1.00
  YS02001602YS02001605 CONDUIT    551.52     0  01:45      1.95   11.67    1.00
  YS02001605YS02001607 CONDUIT    551.14     0  01:45      1.95    3.02    1.00
  YS02001607YS02001610 CONDUIT    547.77     0  01:45      0.70    0.52    1.00
  YS02001610YS02001613 CONDUIT    554.55     0  01:45      0.71    0.64    1.00
  YS02001613YS02001616 CONDUIT    572.35     0  01:45      0.73    0.49    1.00
  YS02001616YS02001619 CONDUIT    534.52     0  01:46      0.68    0.93    1.00
  YS02001619YS02001622 CONDUIT    998.83     0  01:46      1.27    1.47    1.00
  YS02001622YS02001625 CONDUIT    954.76     0  01:46      1.22    0.51    1.00
  YS02001625YS02001629 CONDUIT    954.76     0  01:46      1.22    0.45    1.00
  YS02001629YS02163301 CONDUIT    930.00     0  01:47      1.18    1.15    1.00
  YS02001633YS02163601 CONDUIT   1445.52     0  01:47      1.84    1.52    1.00
  YS02001641YS02001644 CONDUIT   1445.12     0  01:47      1.84    4.67    1.00
  YS02001644YS02001647 CONDUIT   1906.60     0  01:47      2.44    1.12    1.00
  YS02001647YS02001649 CONDUIT   1884.54     0  01:47      2.40    1.00    1.00
  YS02001649YS02001757 CONDUIT   2163.81     0  01:48      2.76    1.31    1.00
  YS02001652YS02001649 CONDUIT    785.89     0  01:51      1.00    0.39    1.00
  YS02001655YS02001652 CONDUIT    785.11     0  01:51      1.41    0.38    1.00
  YS02001658YS02001655 CONDUIT    784.92     0  01:51      1.99    0.33    1.00
  YS02001661YS02001658 CONDUIT    783.60     0  01:51      2.42    0.31    1.00
  YS02001664YS02001661 CONDUIT    783.13     0  01:50      2.43    0.25    0.82
  YS02001745YS02001748 CONDUIT    582.90     0  01:49      2.27    0.22    0.98
  YS02001748YS02001751 CONDUIT    539.17     0  01:50      1.78    0.27    1.00
  YS02001751YS02001754 CONDUIT    541.00     0  01:50      1.50    0.26    1.00
  YS02001754YS02001757 CONDUIT    542.01     0  01:50      0.69    0.22    1.00
  YS02001757CaochengTiaoxuchi CONDUIT   3297.48     0  01:50      4.20    1.43    1.00
  YS02001759YS02001757 CONDUIT   1316.64     0  01:49      1.68    0.94    1.00
  YS02001762YS02001759 CONDUIT    770.58     0  01:49      0.98    0.89    1.00
  YS02001765YS02001762 CONDUIT    767.13     0  01:49      0.98    0.72    1.00
  YS02001767YS02001765 CONDUIT    763.23     0  01:49      0.97    0.96    1.00
  YS02001770YS02001767 CONDUIT    759.15     0  01:49      0.97    3.01    1.00
  YS02001774YS02001770 CONDUIT    512.54     0  01:48      0.65    0.33    1.00
  YS02001779YS02001774 CONDUIT    529.78     0  01:48      0.68    0.27    1.00
  YS02001783YS02001784 CONDUIT   1155.21     0  01:49      2.30    1.59    1.00
  YS02001784YS02001785 CONDUIT   1156.22     0  01:49      2.30    2.69    1.00
  YS02001786YS02001788 CONDUIT   1156.85     0  01:48      2.47    2.23    0.89
  YS02001788YS02001790 CONDUIT   1165.11     0  01:51      2.70    0.86    0.84
  YS02001790YS02001791 CONDUIT   1284.61     0  01:50      3.42    1.40    0.70
  YS02001791YS02001793 CONDUIT   1245.69     0  01:52      6.72    0.53    0.44
  YS02001793JiankangQianchi CONDUIT   1215.43     0  01:50      2.42    0.10    0.65
  YS02001882YS02001884 CONDUIT     90.75     0  01:47      0.14    0.10    1.00
  YS02001884YS02001887 CONDUIT    123.62     0  01:47      0.16    0.16    1.00
  YS02001887YS02001890 CONDUIT    589.43     0  01:50      0.75    1.01    1.00
  YS02001890YS02001895 CONDUIT    538.88     0  01:48      0.69    0.25    1.00
  YS02001895YS02001898 CONDUIT    539.29     0  01:48      0.69    0.94    1.00
  YS02001898YS02001901 CONDUIT    538.95     0  01:48      0.69    0.35    1.00
  YS02001901YS02001904 CONDUIT    538.42     0  01:48      0.69    0.84    1.00
  YS02001904YS02001907 CONDUIT    537.15     0  01:48      0.68    0.19    1.00
  YS02001907YS02006553 CONDUIT    788.67     0  02:02      0.88    0.93    1.00
  YS02001910YS02001907 CONDUIT   1065.90     0  01:50      1.36    0.60    1.00
  YS02001915YS02001910 CONDUIT   1065.58     0  01:50      1.36    0.53    1.00
  YS02001918YS02001915 CONDUIT    560.81     0  01:48      0.72    0.31    1.00
  YS02001920YS02001918 CONDUIT    532.05     0  01:48      0.68    0.51    1.00
  YS02001923YS02001920 CONDUIT    526.49     0  01:48      0.74    0.24    1.00
  YS02001926YS02001923 CONDUIT    742.17     0  01:48      1.18    1.06    1.00
  YS02001929YS02001926 CONDUIT    575.67     0  01:48      1.21    0.27    1.00
  YS02006553YS02006556 CONDUIT    788.38     0  02:02      1.00    0.67    1.00
  YS02006556YS02006558 CONDUIT    788.74     0  02:02      1.00    0.62    1.00
  YS02006558YS02006561 CONDUIT   1168.59     0  01:48      4.13    2.58    1.00
  YS02006561YS02001783 CONDUIT   1155.33     0  01:49      2.30    0.60    1.00
  YS02163301YS02001633 CONDUIT    929.69     0  01:47      1.18    0.87    1.00
  YS02163601YS02164001 CONDUIT   1445.34     0  01:47      1.84    1.28    1.00
  YS02164001YS02001641 CONDUIT   1444.62     0  01:47      1.84    1.97    1.00
  CC-R1                PUMP       683.00     0  00:00              1.00
  CC-R2                PUMP       683.00     0  00:00              1.00
  CC-S1                PUMP       200.00     0  00:00              1.00
  CC-S2                PUMP       200.00     0  00:00              1.00
  JK-R1                PUMP      1000.00     0  00:00              1.00
  JK-R2                PUMP      1000.00     0  00:00              1.00
  JK-S                 PUMP       300.00     0  00:00              1.00
  XR-1                 PUMP        95.00     0  00:00              1.00
  XR-2                 PUMP        95.00     0  00:00              1.00
  XR-3                 PUMP        95.00     0  00:00              1.00
  XR-4                 PUMP        95.00     0  00:00              1.00
  
  
  ***************************
  Flow Classification Summary
  ***************************
  
  -------------------------------------------------------------------------------------
                      Adjusted    ---------- Fraction of Time in Flow Class ---------- 
                       /Actual         Up    Down  Sub   Sup   Up    Down  Norm  Inlet 
  Conduit               Length    Dry  Dry   Dry   Crit  Crit  Crit  Crit  Ltd   Ctrl  
  -------------------------------------------------------------------------------------
  1                       1.00   0.00  0.00  0.00  0.00  1.00  0.00  0.00  0.14  0.00
  WS02001211WS02001212    1.00   0.00  0.02  0.00  0.98  0.00  0.00  0.00  0.00  0.00
  WS02001212WS02001213    1.00   0.02  0.00  0.00  0.20  0.00  0.78  0.00  0.00  0.00
  WS02001213WS02003059    1.00   0.00  0.01  0.00  0.99  0.00  0.00  0.00  0.00  0.00
  WS02003059WS02003060    1.00   0.00  0.00  0.00  1.00  0.00  0.00  0.00  0.03  0.00
  WS02003060WS02003069    1.00   0.00  0.00  0.00  0.98  0.02  0.00  0.00  0.72  0.00
  WS02003066WSF200        1.00   0.13  0.00  0.00  0.00  0.87  0.00  0.00  0.73  0.00
  WS02003067WS02003066    1.00   0.10  0.02  0.00  0.88  0.00  0.00  0.00  0.00  0.00
  WS02003069WS02003072    1.00   0.00  0.00  0.00  1.00  0.00  0.00  0.00  0.77  0.00
  WS02003072WS02003073    1.00   0.00  0.00  0.00  0.00  0.00  0.00  1.00  0.00  0.00
  WS02004138WS02004139    1.00   0.00  0.00  0.00  0.97  0.01  0.00  0.02  0.98  0.00
  WS02004139WS02001211    1.00   0.00  0.00  0.00  0.99  0.00  0.00  0.00  0.00  0.00
  WS02004401WS02004402    1.00   0.02  0.00  0.00  0.98  0.00  0.00  0.00  0.00  0.00
  WS02004402WS02004403    1.00   0.02  0.00  0.00  0.97  0.00  0.00  0.00  0.00  0.00
  WS02004403WS02004404    1.00   0.00  0.03  0.00  0.97  0.00  0.00  0.00  0.00  0.00
  WS02004404WS02004405    1.00   0.00  0.00  0.00  1.00  0.00  0.00  0.00  0.01  0.00
  WS02004405WS02004406    1.00   0.00  0.00  0.00  1.00  0.00  0.00  0.00  0.00  0.00
  WS02004406WS02004407    1.00   0.00  0.05  0.00  0.95  0.00  0.00  0.00  0.00  0.00
  WS02004407WS02004409    1.00   0.05  0.00  0.00  0.94  0.01  0.00  0.00  0.94  0.00
  WS02004409WS02004410    1.00   0.05  0.00  0.00  0.95  0.00  0.00  0.00  0.03  0.00
  WS02004410WS02004411    1.00   0.05  0.00  0.00  0.95  0.00  0.00  0.00  0.01  0.00
  WS02004411WS02004412    1.00   0.05  0.00  0.00  0.95  0.00  0.00  0.00  0.00  0.00
  WS02004412WS02004413    1.00   0.05  0.00  0.00  0.94  0.00  0.00  0.00  0.01  0.00
  WS02004413WS02003067    1.00   0.06  0.04  0.00  0.00  0.00  0.90  0.00  0.00  0.00
  WS02006109WS02006110    1.00   0.00  0.01  0.00  0.98  0.00  0.01  0.00  0.00  0.00
  WS02006110WS02006113    1.00   0.01  0.01  0.00  0.98  0.00  0.00  0.00  0.00  0.00
  WS02006111WS02006112    1.00   0.02  0.00  0.00  0.98  0.00  0.00  0.00  0.98  0.00
  WS02006112WS02006115    1.00   0.02  0.00  0.00  0.97  0.00  0.00  0.00  0.00  0.00
  WS02006113WS02006111    1.00   0.02  0.00  0.00  0.00  0.98  0.00  0.00  0.08  0.00
  WS02006115WS02006116    1.00   0.02  0.00  0.00  0.97  0.00  0.00  0.01  0.00  0.00
  WS02006116WS02004401    1.00   0.02  0.00  0.00  0.98  0.00  0.00  0.00  0.00  0.00
  WS02006228WS02006109    1.00   0.00  0.00  0.00  1.00  0.00  0.00  0.00  0.00  0.00
  WS02006229WS02006228    1.00   0.00  0.00  0.00  0.99  0.00  0.00  0.01  0.00  0.00
  WS02006230WS02006229    1.00   0.00  0.00  0.00  0.99  0.00  0.00  0.01  0.00  0.00
  WS02006231WS02006230    1.00   0.00  0.00  0.00  0.19  0.00  0.81  0.00  0.00  0.00
  WS02006232WS02006231    1.00   0.00  0.00  0.00  0.99  0.00  0.01  0.00  0.00  0.00
  WS02006234WS02006232    1.00   0.00  0.00  0.00  1.00  0.00  0.00  0.00  0.49  0.00
  WS02006235WS02006234    1.00   0.00  0.00  0.00  0.47  0.00  0.53  0.00  0.00  0.00
  WS02006238WS02006235    1.00   0.00  0.00  0.00  1.00  0.00  0.00  0.00  0.00  0.00
  WS02006239WS02006238    1.00   0.00  0.00  0.00  1.00  0.00  0.00  0.00  0.59  0.00
  WS02006240WS02006239    1.00   0.00  0.00  0.00  0.37  0.00  0.00  0.63  0.01  0.00
  WS02006242WS02006240    1.00   0.00  0.00  0.00  1.00  0.00  0.00  0.00  0.00  0.00
  WS02006243WS02006242    1.00   0.00  0.00  0.00  0.99  0.00  0.00  0.01  0.74  0.00
  WS02006245WS02006243    1.00   0.00  0.00  0.00  0.41  0.00  0.00  0.59  0.00  0.00
  WS02006247WS02006245    1.00   0.00  0.00  0.00  0.98  0.00  0.00  0.01  0.00  0.00
  WS02006248WS02006247    1.00   0.00  0.00  0.00  0.99  0.00  0.00  0.01  0.19  0.00
  WS02006249WS02006248    1.00   0.00  0.00  0.00  0.31  0.00  0.69  0.00  0.00  0.00
  WS02006251WS02006249    1.00   0.00  0.00  0.00  0.99  0.01  0.00  0.00  0.73  0.00
  WS02006252WS02006251    1.00   0.00  0.75  0.00  0.14  0.00  0.11  0.00  0.00  0.00
  WS02006256WS02006235    1.00   0.00  0.00  0.00  1.00  0.00  0.00  0.00  0.00  0.00
  WSF200WS02003060        1.00   0.00  0.13  0.00  0.69  0.18  0.00  0.00  0.68  0.00
  YS02001580YS02001583    1.00   0.22  0.61  0.00  0.18  0.00  0.00  0.00  0.70  0.00
  YS02001583YS02001586    1.00   0.49  0.28  0.00  0.23  0.00  0.00  0.00  0.70  0.00
  YS02001586YS02001590    1.00   0.13  0.00  0.00  0.38  0.04  0.00  0.45  0.33  0.00
  YS02001590YS02001593    1.00   0.13  0.01  0.00  0.10  0.00  0.77  0.00  0.00  0.00
  YS02001593YS02001596    1.00   0.13  0.00  0.00  0.11  0.01  0.00  0.74  0.02  0.00
  YS02001596YS02001600    1.00   0.14  0.00  0.00  0.19  0.01  0.00  0.66  0.06  0.00
  YS02001600YS02001601    1.00   0.13  0.01  0.00  0.86  0.00  0.00  0.00  0.62  0.00
  YS02001601YS02001602    1.00   0.13  0.01  0.00  0.87  0.00  0.00  0.00  0.00  0.00
  YS02001602YS02001605    1.00   0.13  0.00  0.00  0.86  0.00  0.00  0.00  0.00  0.00
  YS02001605YS02001607    1.00   0.14  0.00  0.00  0.86  0.00  0.00  0.00  0.00  0.00
  YS02001607YS02001610    1.00   0.13  0.01  0.00  0.86  0.00  0.00  0.00  0.01  0.00
  YS02001610YS02001613    1.00   0.13  0.00  0.00  0.87  0.00  0.00  0.00  0.00  0.00
  YS02001613YS02001616    1.00   0.13  0.00  0.00  0.87  0.00  0.00  0.00  0.00  0.00
  YS02001616YS02001619    1.00   0.13  0.00  0.00  0.87  0.00  0.00  0.00  0.00  0.00
  YS02001619YS02001622    1.00   0.13  0.00  0.00  0.87  0.00  0.00  0.00  0.35  0.00
  YS02001622YS02001625    1.00   0.13  0.00  0.00  0.87  0.00  0.00  0.00  0.04  0.00
  YS02001625YS02001629    1.00   0.13  0.05  0.00  0.14  0.00  0.68  0.00  0.00  0.00
  YS02001629YS02163301    1.00   0.15  0.01  0.00  0.84  0.00  0.00  0.00  0.00  0.00
  YS02001633YS02163601    1.00   0.00  0.01  0.00  0.99  0.00  0.00  0.00  0.15  0.00
  YS02001641YS02001644    1.00   0.00  0.01  0.00  0.99  0.00  0.00  0.00  0.00  0.00
  YS02001644YS02001647    1.00   0.00  0.17  0.00  0.83  0.00  0.00  0.00  0.00  0.00
  YS02001647YS02001649    1.00   0.00  0.17  0.00  0.57  0.26  0.00  0.00  0.59  0.00
  YS02001649YS02001757    1.00   0.00  0.00  0.00  0.71  0.29  0.00  0.00  0.56  0.00
  YS02001652YS02001649    1.00   0.00  0.00  0.00  0.97  0.03  0.00  0.00  0.76  0.00
  YS02001655YS02001652    1.00   0.00  0.00  0.00  0.15  0.03  0.00  0.82  0.06  0.00
  YS02001658YS02001655    1.00   0.00  0.14  0.00  0.66  0.20  0.00  0.00  0.70  0.00
  YS02001661YS02001658    1.00   0.14  0.00  0.00  0.52  0.34  0.00  0.00  0.73  0.00
  YS02001664YS02001661    1.00   0.13  0.00  0.00  0.77  0.11  0.00  0.00  0.86  0.00
  YS02001745YS02001748    1.00   0.00  0.00  0.00  0.08  0.01  0.00  0.91  0.05  0.00
  YS02001748YS02001751    1.00   0.00  0.00  0.00  0.82  0.18  0.00  0.00  0.78  0.00
  YS02001751YS02001754    1.00   0.00  0.00  0.00  0.13  0.00  0.00  0.86  0.02  0.00
  YS02001754YS02001757    1.00   0.00  0.00  0.00  1.00  0.00  0.00  0.00  0.86  0.00
  YS02001757CaochengTiaoxuchi    1.00   0.00  0.00  0.00  1.00  0.00  0.00  0.00  0.85  0.00
  YS02001759YS02001757    1.00   0.00  0.00  0.00  1.00  0.00  0.00  0.00  0.63  0.00
  YS02001762YS02001759    1.00   0.00  0.00  0.00  1.00  0.00  0.00  0.00  0.03  0.00
  YS02001765YS02001762    1.00   0.00  0.00  0.00  1.00  0.00  0.00  0.00  0.75  0.00
  YS02001767YS02001765    1.00   0.00  0.00  0.00  1.00  0.00  0.00  0.00  0.00  0.00
  YS02001770YS02001767    1.00   0.00  0.00  0.00  1.00  0.00  0.00  0.00  0.00  0.00
  YS02001774YS02001770    1.00   0.00  0.13  0.00  0.60  0.00  0.26  0.00  0.03  0.00
  YS02001779YS02001774    1.00   0.00  0.00  0.00  1.00  0.00  0.00  0.00  0.79  0.00
  YS02001783YS02001784    1.00   0.00  0.18  0.00  0.82  0.00  0.00  0.00  0.57  0.00
  YS02001784YS02001785    1.00   0.00  0.00  0.00  1.00  0.00  0.00  0.00  0.16  0.00
  YS02001786YS02001788    1.00   0.00  0.00  0.00  0.80  0.20  0.00  0.00  0.00  0.00
  YS02001788YS02001790    1.00   0.00  0.00  0.00  0.20  0.80  0.00  0.00  0.83  0.00
  YS02001790YS02001791    1.00   0.00  0.00  0.00  0.01  0.99  0.00  0.00  0.17  0.00
  YS02001791YS02001793    1.00   0.00  0.00  0.00  0.00  1.00  0.00  0.00  0.01  0.00
  YS02001793JiankangQianchi    1.00   0.00  0.00  0.00  0.99  0.01  0.00  0.00  0.96  0.00
  YS02001882YS02001884    1.00   0.15  0.01  0.00  0.84  0.00  0.00  0.00  0.00  0.00
  YS02001884YS02001887    1.00   0.06  0.05  0.00  0.89  0.00  0.00  0.00  0.00  0.00
  YS02001887YS02001890    1.00   0.00  0.00  0.00  0.97  0.00  0.03  0.00  0.00  0.00
  YS02001890YS02001895    1.00   0.00  0.16  0.00  0.84  0.00  0.00  0.00  0.00  0.00
  YS02001895YS02001898    1.00   0.16  0.00  0.00  0.82  0.00  0.02  0.00  0.00  0.00
  YS02001898YS02001901    1.00   0.16  0.00  0.00  0.83  0.00  0.00  0.00  0.01  0.00
  YS02001901YS02001904    1.00   0.16  0.00  0.00  0.84  0.00  0.00  0.00  0.00  0.00
  YS02001904YS02001907    1.00   0.00  0.16  0.00  0.84  0.00  0.00  0.00  0.00  0.00
  YS02001907YS02006553    1.00   0.00  0.02  0.00  0.98  0.00  0.00  0.00  0.00  0.00
  YS02001910YS02001907    1.00   0.00  0.00  0.00  0.97  0.00  0.00  0.03  0.12  0.00
  YS02001915YS02001910    1.00   0.00  0.00  0.00  0.97  0.03  0.00  0.00  0.15  0.00
  YS02001918YS02001915    1.00   0.00  0.01  0.00  0.98  0.02  0.00  0.00  0.77  0.00
  YS02001920YS02001918    1.00   0.00  0.01  0.00  0.99  0.00  0.00  0.00  0.00  0.00
  YS02001923YS02001920    1.00   0.00  0.00  0.00  1.00  0.00  0.00  0.00  0.94  0.00
  YS02001926YS02001923    1.00   0.00  0.07  0.00  0.04  0.00  0.88  0.00  0.00  0.00
  YS02001929YS02001926    1.00   0.00  0.13  0.00  0.87  0.00  0.00  0.00  0.84  0.00
  YS02006553YS02006556    1.00   0.01  0.00  0.00  0.99  0.00  0.00  0.00  0.03  0.00
  YS02006556YS02006558    1.00   0.00  0.00  0.00  1.00  0.00  0.00  0.00  0.00  0.00
  YS02006558YS02006561    1.00   0.18  0.00  0.00  0.04  0.78  0.00  0.00  0.19  0.00
  YS02006561YS02001783    1.00   0.18  0.00  0.00  0.07  0.76  0.00  0.00  0.71  0.00
  YS02163301YS02001633    1.00   0.00  0.15  0.00  0.85  0.00  0.00  0.00  0.00  0.00
  YS02163601YS02164001    1.00   0.00  0.08  0.00  0.92  0.00  0.00  0.00  0.00  0.00
  YS02164001YS02001641    1.00   0.01  0.07  0.00  0.92  0.00  0.00  0.00  0.05  0.00
  
  
  *************************
  Conduit Surcharge Summary
  *************************
  
  ----------------------------------------------------------------------------
                                                           Hours        Hours 
                         --------- Hours Full --------   Above Full   Capacity
  Conduit                Both Ends  Upstream  Dnstream   Normal Flow   Limited
  ----------------------------------------------------------------------------
  WS02003072WS02003073        0.01      0.01      0.01      1.57         0.01
  WS02004404WS02004405        0.01      0.01      0.01      1.85         0.01
  WS02004405WS02004406        0.01      0.01      0.01      0.94         0.01
  WS02006109WS02006110        0.95      0.95      1.45      1.06         0.01
  WS02006110WS02006113        0.01      0.01      1.45      0.01         0.01
  WS02006111WS02006112        0.01      0.01      1.53      0.01         0.01
  WS02006112WS02006115        0.01      0.01      1.00      0.01         0.01
  WS02006228WS02006109        1.44      1.45      1.44      1.58         1.43
  WS02006229WS02006228        1.43      1.44      1.43      1.53         1.42
  WS02006230WS02006229        1.47      1.50      1.47      2.21         1.47
  WS02006231WS02006230        0.95      0.95      1.13      2.02         0.01
  WS02006232WS02006231        1.08      1.08      1.45      1.15         0.01
  WS02006234WS02006232        1.39      1.39      1.45      1.13         1.12
  WS02006235WS02006234        1.30      1.31      1.40      1.88         0.02
  WS02006238WS02006235        1.42      1.42      1.45      0.01         0.01
  WS02006239WS02006238        1.44      1.45      1.44      1.47         1.29
  WS02006240WS02006239        1.42      1.44      1.42      1.47         1.22
  WS02006242WS02006240        1.42      1.42      1.47      1.53         0.01
  WS02006243WS02006242        1.43      1.43      1.44      0.01         0.04
  WS02006245WS02006243        1.42      1.42      1.42      0.48         0.45
  WS02006247WS02006245        1.42      1.42      1.42      1.66         1.40
  WS02006248WS02006247        1.42      1.42      1.42      0.01         0.05
  WS02006249WS02006248        1.41      1.42      1.41      1.64         0.01
  WS02006251WS02006249        1.41      1.41      1.41      1.53         1.35
  WS02006252WS02006251        1.61      1.61      1.61      1.61         0.01
  WS02006256WS02006235        1.89      1.94      3.27      1.33         0.01
  YS02001580YS02001583        0.47      0.47      0.52      0.01         0.01
  YS02001583YS02001586        0.48      0.48      0.61      0.01         0.01
  YS02001586YS02001590        0.61      0.61      0.67      0.01         0.01
  YS02001590YS02001593        0.68      0.68      0.69      0.73         0.01
  YS02001593YS02001596        0.69      0.69      0.78      0.01         0.01
  YS02001596YS02001600        0.82      0.82      0.92      0.01         0.01
  YS02001600YS02001601        0.98      0.98      1.33      0.01         0.01
  YS02001601YS02001602        1.18      1.18      1.39      0.93         0.01
  YS02001602YS02001605        1.11      1.11      1.18      2.08         0.01
  YS02001605YS02001607        1.06      1.11      1.06      1.27         1.06
  YS02001607YS02001610        0.65      0.65      0.68      0.01         0.01
  YS02001610YS02001613        0.64      0.64      0.68      0.01         0.01
  YS02001613YS02001616        0.61      0.61      0.64      0.01         0.01
  YS02001616YS02001619        0.59      0.59      0.61      0.01         0.01
  YS02001619YS02001622        0.59      0.59      0.59      0.69         0.56
  YS02001622YS02001625        0.59      0.59      0.76      0.01         0.01
  YS02001625YS02001629        0.55      0.55      0.76      0.01         0.01
  YS02001629YS02163301        0.76      0.76      0.76      0.08         0.15
  YS02001633YS02163601        0.78      0.78      0.81      0.35         0.34
  YS02001641YS02001644        0.70      0.73      0.70      1.44         0.69
  YS02001644YS02001647        0.51      0.51      0.71      0.04         0.01
  YS02001647YS02001649        0.51      0.51      0.62      0.01         0.01
  YS02001649YS02001757        0.62      0.62      0.69      0.06         0.09
  YS02001652YS02001649        0.46      0.46      0.62      0.01         0.01
  YS02001655YS02001652        0.28      0.28      0.43      0.01         0.01
  YS02001658YS02001655        0.10      0.10      0.28      0.01         0.01
  YS02001661YS02001658        0.01      0.01      0.10      0.01         0.01
  YS02001664YS02001661        0.01      0.01      0.02      0.01         0.01
  YS02001745YS02001748        0.01      0.01      0.02      0.01         0.01
  YS02001748YS02001751        0.08      0.08      0.17      0.01         0.01
  YS02001751YS02001754        0.17      0.17      0.34      0.01         0.01
  YS02001754YS02001757        0.38      0.38      0.69      0.01         0.01
  YS02001757CaochengTiaoxuchi        0.68      0.69      1.19      0.27         0.25
  YS02001759YS02001757        0.59      0.59      0.69      0.01         0.01
  YS02001762YS02001759        0.55      0.55      0.59      0.01         0.02
  YS02001765YS02001762        0.51      0.51      0.55      0.01         0.01
  YS02001767YS02001765        0.47      0.47      0.51      0.01         0.02
  YS02001770YS02001767        0.47      0.48      0.47      0.42         0.33
  YS02001774YS02001770        0.44      0.44      0.54      0.01         0.01
  YS02001779YS02001774        0.33      0.33      0.54      0.01         0.01
  YS02001783YS02001784        0.38      0.41      0.38      0.53         0.38
  YS02001784YS02001785        0.29      0.38      0.29      0.74         0.29
  YS02001786YS02001788        0.01      0.29      0.01      0.62         0.01
  YS02001790YS02001791        0.01      0.01      0.01      0.37         0.01
  YS02001793JiankangQianchi        0.01      0.01      7.68      0.01         0.01
  YS02001882YS02001884        0.36      0.36      0.37      0.01         0.01
  YS02001884YS02001887        0.39      0.39      0.40      0.01         0.01
  YS02001887YS02001890        0.41      0.41      0.42      0.01         0.01
  YS02001890YS02001895        0.35      0.35      0.43      0.01         0.01
  YS02001895YS02001898        0.34      0.34      0.35      0.01         0.01
  YS02001898YS02001901        0.35      0.35      0.38      0.01         0.01
  YS02001901YS02001904        0.37      0.37      0.38      0.01         0.01
  YS02001904YS02001907        0.37      0.37      0.60      0.01         0.01
  YS02001907YS02006553        0.75      0.75      0.81      0.01         0.01
  YS02001910YS02001907        0.43      0.43      0.59      0.01         0.01
  YS02001915YS02001910        0.35      0.35      0.43      0.01         0.01
  YS02001918YS02001915        0.28      0.28      0.35      0.01         0.01
  YS02001920YS02001918        0.28      0.28      0.29      0.01         0.01
  YS02001923YS02001920        0.23      0.23      0.29      0.01         0.01
  YS02001926YS02001923        0.01      0.01      0.01      0.01         0.01
  YS02001929YS02001926        0.01      0.01      0.01      0.01         0.01
  YS02006553YS02006556        0.51      0.51      0.59      0.01         0.01
  YS02006556YS02006558        0.55      0.55      0.61      0.01         0.01
  YS02006558YS02006561        0.31      0.50      0.31      0.70         0.31
  YS02006561YS02001783        0.24      0.24      0.41      0.01         0.01
  YS02163301YS02001633        0.76      0.76      0.80      0.01         0.01
  YS02163601YS02164001        0.73      0.73      0.81      0.04         0.01
  YS02164001YS02001641        0.73      0.73      0.73      0.68         0.59
  
  
  ***************
  Pumping Summary
  ***************
  
  ---------------------------------------------------------------------------------------------------------
                                                  Min       Avg       Max     Total     Power    % Time Off
                        Percent   Number of      Flow      Flow      Flow    Volume     Usage    Pump Curve
  Pump                 Utilized   Start-Ups       LPS       LPS       LPS  10^6 ltr     Kw-hr    Low   High
  ---------------------------------------------------------------------------------------------------------
  CC-R1                   19.38          12      0.00    683.00    683.00     3.812     69.81    0.0   27.3
  CC-R2                   18.36          12      0.00    683.00    683.00     3.611     66.07    0.0   28.9
  CC-S1                   21.40          12      0.00    200.00    200.00     1.233      7.28    0.0    0.0
  CC-S2                   20.13          12      0.00    200.00    200.00     1.159      6.84    0.0    0.0
  JK-R1                    6.52          11      0.00   1000.00   1000.00     1.879     22.50    0.0    0.0
  JK-R2                    0.16           1      0.00   1000.00   1000.00     0.047      0.36    0.0    0.0
  JK-S                    16.55          16      0.00    300.00    300.00     1.430     20.24    0.0    0.0
  XR-1                    97.91           2      0.00     95.00     95.00     2.679      9.60    0.0    0.0
  XR-2                    93.94           2      0.00     95.00     95.00     2.570      8.76    0.0    0.0
  XR-3                     0.00           1      0.00     95.00     95.00     0.000      0.00    0.0    0.0
  XR-4                     0.00           1      0.00     95.00     95.00     0.000      0.00    0.0    0.0
  

  Analysis begun on:  Wed Nov  5 16:31:48 2025
  Analysis ended on:  Wed Nov  5 16:31:50 2025
  Total elapsed time: 00:00:02