
  EPA STORM WATER MANAGEMENT MODEL - VERSION 5.2 (Build 5.2.4)
  PYSWMM TOOLKIT API - VERSION v1.0 (2023-11-27)
  ------------------------------------------------------------

  WARNING 04: minimum elevation drop used for Conduit WS02004404WS02004405
  WARNING 03: negative offset ignored for Link YS02001904YS02001907
  
  ****************
  Analysis Options
  ****************
  Flow Units ............... LPS
  Process Models:
    Rainfall/Runoff ........ YES
    RDII ................... NO
    Snowmelt ............... NO
    Groundwater ............ NO
    Flow Routing ........... YES
    Ponding Allowed ........ NO
    Water Quality .......... NO
  Infiltration Method ...... HORTON
  Flow Routing Method ...... DYNWAVE
  Surcharge Method ......... EXTRAN
  Starting Date ............ 08/28/2015 08:00:00
  Ending Date .............. 08/28/2015 16:00:00
  Antecedent Dry Days ...... 8.0
  Report Time Step ......... 00:01:00
  Wet Time Step ............ 00:01:00
  Dry Time Step ............ 00:01:00
  Routing Time Step ........ 30.00 sec
  Variable Time Step ....... YES
  Maximum Trials ........... 8
  Number of Threads ........ 4
  Head Tolerance ........... 0.001500 m
  
  
  **************************        Volume         Depth
  Runoff Quantity Continuity     hectare-m            mm
  **************************     ---------       -------
  Initial LID Storage ......         0.049         1.488
  Total Precipitation ......         2.297        69.261
  Evaporation Loss .........         0.000         0.000
  Infiltration Loss ........         0.079         2.369
  Surface Runoff ...........         1.709        51.526
  Final Storage ............         0.560        16.876
  Continuity Error (%) .....        -0.032
  
  
  **************************        Volume        Volume
  Flow Routing Continuity        hectare-m      10^6 ltr
  **************************     ---------     ---------
  Dry Weather Inflow .......         0.602         6.020
  Wet Weather Inflow .......         1.709        17.091
  Groundwater Inflow .......         0.000         0.000
  RDII Inflow ..............         0.000         0.000
  External Inflow ..........         0.105         1.045
  External Outflow .........         1.866        18.658
  Flooding Loss ............         0.523         5.233
  Evaporation Loss .........         0.000         0.000
  Exfiltration Loss ........         0.000         0.000
  Initial Stored Volume ....         0.303         3.031
  Final Stored Volume ......         0.335         3.347
  Continuity Error (%) .....        -0.186
  
  
  *************************
  Highest Continuity Errors
  *************************
  Node YS02001884 (4.97%)
  Node YS02001583 (-4.51%)
  
  
  ***************************
  Time-Step Critical Elements
  ***************************
  Link WS02004404WS02004405 (38.64%)
  Link WS02006252WS02006251 (13.84%)
  Link YS02001791YS02001793 (12.55%)
  Link WS02006238WS02006235 (11.94%)
  Link WS02003066WSF200 (5.60%)
  
  
  ********************************
  Highest Flow Instability Indexes
  ********************************
  Link WS02006113WS02006111 (28)
  Link WS02006238WS02006235 (27)
  Link WS02006235WS02006234 (19)
  Link WS02006111WS02006112 (19)
  Link WS02006239WS02006238 (19)
  
  
  *********************************
  Most Frequent Nonconverging Nodes
  *********************************
  Node CC-1 (11.97%)
  Node CC-2 (11.97%)
  Node JK-1 (11.97%)
  Node JK-2 (11.97%)
  Node WSC (11.97%)
  
  
  *************************
  Routing Time Step Summary
  *************************
  Minimum Time Step           :     0.00 sec
  Average Time Step           :     3.35 sec
  Maximum Time Step           :     7.04 sec
  % of Time in Steady State   :     0.00
  Average Iterations per Step :     3.21
  % of Steps Not Converging   :    11.97
  Time Step Frequencies       :
     30.000 - 13.228 sec      :     0.00 %
     13.228 -  5.833 sec      :    28.92 %
      5.833 -  2.572 sec      :    23.06 %
      2.572 -  1.134 sec      :    27.17 %
      1.134 -  0.500 sec      :    20.85 %
  
  
  ***************************
  Subcatchment Runoff Summary
  ***************************
  
  ------------------------------------------------------------------------------------------------------------------------------
                            Total      Total      Total      Total     Imperv       Perv      Total       Total     Peak  Runoff
                           Precip      Runon       Evap      Infil     Runoff     Runoff     Runoff      Runoff   Runoff   Coeff
  Subcatchment                 mm         mm         mm         mm         mm         mm         mm    10^6 ltr      LPS
  ------------------------------------------------------------------------------------------------------------------------------
  sub60                     69.26       0.00       0.00       1.39      46.12       5.03      51.15        0.67   512.09   0.738
  sub61                     69.26       0.00       0.00       2.13      46.08       7.49      53.57        0.98   749.73   0.773
  sub62                     69.26       0.00       0.00       0.94      49.12       3.42      52.54        1.44  1031.73   0.759
  sub63                     69.26       0.00       0.00       3.94      39.46      12.50      51.96        1.18   866.91   0.750
  sub64                     69.26       0.00       0.00       1.89      44.94       6.21      51.14        1.23   849.45   0.738
  sub65                     69.26       0.00       0.00       1.73      48.50       5.67      54.17        1.49   993.30   0.782
  sub66                     69.26       0.00       0.00       4.66      38.16      11.26      49.43        2.30  1324.27   0.714
  sub67                     69.26       0.00       0.00       0.93      50.36       3.54      53.89        1.00   784.57   0.778
  sub68                     69.26       0.00       0.00       1.64      44.48       5.75      50.22        1.38  1026.66   0.725
  sub69                     69.26       0.00       0.00       1.52      46.58       6.72      53.29        1.97  1282.92   0.769
  sub70                     69.26       0.00       0.00       5.19      37.32      14.09      51.41        1.49   766.00   0.742
  sub71                     69.26       0.00       0.00       0.87      44.62       3.09      47.71        1.25   854.73   0.689
  sub72                     69.26       0.00       0.00       0.83      48.20       2.87      51.08        0.70   442.46   0.737
  

  ***********************
  LID Performance Summary
  ***********************

  --------------------------------------------------------------------------------------------------------------------
                                         Total      Evap     Infil   Surface    Drain    Initial     Final  Continuity
                                        Inflow      Loss      Loss   Outflow   Outflow   Storage   Storage       Error
  Subcatchment      LID Control             mm        mm        mm        mm        mm        mm        mm           %
  --------------------------------------------------------------------------------------------------------------------
  sub60             GreenRoof            69.26      0.00      0.00      0.00      0.00      7.05     76.36       -0.06
  sub61             GreenRoof            69.26      0.00      0.00      0.00      0.00      7.05     76.36       -0.06
  sub62             GreenRoof            69.26      0.00      0.00      0.00      0.00      7.05     76.36       -0.06
  sub63             GreenRoof            69.26      0.00      0.00      0.00      0.00      7.05     76.36       -0.06
  sub64             GreenRoof            69.26      0.00      0.00      0.00      0.00      7.05     76.36       -0.06
  sub65             GreenRoof            69.26      0.00      0.00      0.00      0.00      7.05     76.36       -0.06
  sub66             GreenRoof            69.26      0.00      0.00      0.00      0.00      7.05     76.36       -0.06
  sub67             GreenRoof            69.26      0.00      0.00      0.00      0.00      7.05     76.36       -0.06
  sub68             GreenRoof            69.26      0.00      0.00      0.00      0.00      7.05     76.36       -0.06
  sub69             GreenRoof            69.26      0.00      0.00      0.00      0.00      7.05     76.36       -0.06
  sub70             GreenRoof            69.26      0.00      0.00      0.00      0.00      7.05     76.36       -0.06
  sub71             GreenRoof            69.26      0.00      0.00      0.00      0.00      7.05     76.36       -0.06
  sub72             GreenRoof            69.26      0.00      0.00      0.00      0.00      7.05     76.36       -0.06
  
  ******************
  Node Depth Summary
  ******************
  
  ---------------------------------------------------------------------------------
                                 Average  Maximum  Maximum  Time of Max    Reported
                                   Depth    Depth      HGL   Occurrence   Max Depth
  Node                 Type       Meters   Meters   Meters  days hr:min      Meters
  ---------------------------------------------------------------------------------
  WS02001211           JUNCTION     0.60     0.64     5.48     0  02:59        0.64
  WS02001212           JUNCTION     0.34     0.38     5.45     0  02:58        0.38
  WS02001213           JUNCTION     0.53     0.65     5.41     0  02:58        0.65
  WS02003059           JUNCTION     0.60     0.72     5.40     0  02:57        0.72
  WS02003060           JUNCTION     0.31     0.45     5.39     0  02:56        0.45
  WS02003066           JUNCTION     0.16     0.30     5.85     0  02:56        0.30
  WS02003067           JUNCTION     0.44     0.70     6.02     0  02:56        0.70
  WS02003069           JUNCTION     0.34     0.51     5.10     0  02:57        0.51
  WS02003072           JUNCTION     0.40     0.58     4.95     0  02:58        0.58
  WS02003073           JUNCTION     0.24     0.35     4.41     0  02:58        0.35
  WS02004138           JUNCTION     0.13     0.14     7.39     0  00:29        0.14
  WS02004139           JUNCTION     0.54     0.58     5.49     0  03:00        0.58
  WS02004401           JUNCTION     0.53     0.85     6.85     0  02:51        0.85
  WS02004402           JUNCTION     0.57     0.88     6.84     0  02:52        0.88
  WS02004403           JUNCTION     0.59     0.89     6.82     0  02:52        0.89
  WS02004404           JUNCTION     0.66     0.96     6.81     0  02:52        0.96
  WS02004405           JUNCTION     0.66     0.96     6.81     0  02:52        0.96
  WS02004406           JUNCTION     0.67     0.96     6.79     0  02:52        0.96
  WS02004407           JUNCTION     0.14     0.30     6.61     0  02:54        0.30
  WS02004409           JUNCTION     0.32     0.67     6.44     0  02:54        0.67
  WS02004410           JUNCTION     0.35     0.68     6.40     0  02:55        0.68
  WS02004411           JUNCTION     0.37     0.69     6.37     0  02:55        0.69
  WS02004412           JUNCTION     0.39     0.70     6.34     0  02:55        0.70
  WS02004413           JUNCTION     0.55     0.86     6.33     0  02:55        0.86
  WS02006109           JUNCTION     0.60     1.06     7.68     0  02:07        0.97
  WS02006110           JUNCTION     0.60     1.04     7.63     0  03:16        0.92
  WS02006111           JUNCTION     0.15     0.29     6.99     0  02:54        0.29
  WS02006112           JUNCTION     0.69     1.07     6.95     0  03:16        1.05
  WS02006113           JUNCTION     0.23     0.46     7.35     0  02:57        0.46
  WS02006115           JUNCTION     0.42     0.75     6.89     0  02:53        0.75
  WS02006116           JUNCTION     0.50     0.83     6.87     0  02:51        0.83
  WS02006228           JUNCTION     0.60     1.08     7.73     0  03:16        1.02
  WS02006229           JUNCTION     0.57     1.10     7.80     0  03:15        1.02
  WS02006230           JUNCTION     0.58     1.24     7.99     0  03:15        1.15
  WS02006231           JUNCTION     0.38     0.97     8.09     0  03:15        0.90
  WS02006232           JUNCTION     0.51     1.16     8.20     0  03:26        1.12
  WS02006234           JUNCTION     0.45     1.22     8.38     0  03:26        1.21
  WS02006235           JUNCTION     0.49     1.34     8.50     0  03:26        1.34
  WS02006238           JUNCTION     0.52     1.39     8.53     0  03:26        1.39
  WS02006239           JUNCTION     0.48     1.44     8.65     0  03:16        1.44
  WS02006240           JUNCTION     0.46     1.43     8.72     0  03:16        1.43
  WS02006242           JUNCTION     0.51     1.47     8.74     0  03:16        1.47
  WS02006243           JUNCTION     0.44     1.32     8.74     0  03:16        1.32
  WS02006245           JUNCTION     0.44     1.25     8.74     0  03:16        1.25
  WS02006247           JUNCTION     0.46     1.22     8.72     0  03:26        1.22
  WS02006248           JUNCTION     0.43     1.10     8.69     0  03:16        1.10
  WS02006249           JUNCTION     0.45     1.09     8.69     0  02:06        1.09
  WS02006251           JUNCTION     0.45     1.46     9.13     0  02:07        1.13
  WS02006252           JUNCTION     0.29     1.50     9.74     0  00:00        0.70
  WS02006256           JUNCTION     1.18     2.35     9.28     0  00:00        2.35
  WSF200               JUNCTION     0.14     0.31     5.54     0  02:56        0.31
  YS02001580           JUNCTION     0.10     1.05     9.59     0  02:13        0.77
  YS02001583           JUNCTION     0.13     1.03     9.52     0  02:13        0.82
  YS02001586           JUNCTION     0.23     1.13     9.30     0  02:13        1.13
  YS02001590           JUNCTION     0.34     1.40     9.26     0  02:13        1.37
  YS02001593           JUNCTION     0.26     1.34     9.20     0  02:13        1.28
  YS02001596           JUNCTION     0.37     1.68     9.10     0  02:13        1.66
  YS02001600           JUNCTION     0.47     1.87     9.00     0  02:13        1.86
  YS02001601           JUNCTION     0.67     2.06     8.90     0  02:12        2.06
  YS02001602           JUNCTION     0.58     1.87     8.77     0  02:15        1.87
  YS02001605           JUNCTION     0.53     1.78     8.68     0  02:20        1.77
  YS02001607           JUNCTION     0.51     1.65     8.49     0  02:29        1.65
  YS02001610           JUNCTION     0.55     1.68     8.48     0  02:15        1.68
  YS02001613           JUNCTION     0.51     1.66     8.50     0  02:25        1.66
  YS02001616           JUNCTION     0.44     1.61     8.52     0  02:24        1.60
  YS02001619           JUNCTION     0.42     1.60     8.53     0  02:25        1.60
  YS02001622           JUNCTION     0.40     1.57     8.48     0  02:24        1.57
  YS02001625           JUNCTION     0.66     1.78     8.38     0  02:15        1.78
  YS02001629           JUNCTION     0.55     1.85     8.40     0  02:18        1.85
  YS02001633           JUNCTION     0.63     2.01     8.46     0  02:18        1.99
  YS02001641           JUNCTION     0.60     1.96     8.40     0  02:18        1.94
  YS02001644           JUNCTION     0.59     1.92     8.35     0  02:18        1.92
  YS02001647           JUNCTION     0.37     1.76     8.37     0  02:24        1.76
  YS02001649           JUNCTION     0.43     1.99     8.38     0  02:23        1.98
  YS02001652           JUNCTION     0.30     1.84     8.44     0  02:23        1.82
  YS02001655           JUNCTION     0.23     1.69     8.54     0  02:18        1.61
  YS02001658           JUNCTION     0.17     1.61     8.75     0  02:18        1.38
  YS02001661           JUNCTION     0.18     1.24     8.65     0  02:23        1.24
  YS02001664           JUNCTION     0.07     0.57     8.50     0  02:24        0.55
  YS02001745           JUNCTION     0.09     0.83     8.35     0  02:24        0.82
  YS02001748           JUNCTION     0.16     1.30     8.38     0  02:20        1.25
  YS02001751           JUNCTION     0.20     1.45     8.33     0  02:24        1.44
  YS02001754           JUNCTION     0.26     1.70     8.31     0  02:24        1.69
  YS02001757           JUNCTION     0.44     2.04     8.30     0  02:24        2.03
  YS02001759           JUNCTION     0.38     2.01     8.38     0  02:23        2.00
  YS02001762           JUNCTION     0.37     2.00     8.40     0  02:23        1.96
  YS02001765           JUNCTION     0.35     1.96     8.41     0  02:23        1.91
  YS02001767           JUNCTION     0.34     1.93     8.42     0  02:23        1.90
  YS02001770           JUNCTION     0.36     1.94     8.43     0  02:23        1.92
  YS02001774           JUNCTION     0.42     1.99     8.41     0  02:23        1.98
  YS02001779           JUNCTION     0.25     1.68     8.37     0  02:16        1.68
  YS02001783           JUNCTION     0.29     1.29     7.43     0  02:18        1.26
  YS02001784           JUNCTION     0.30     1.15     7.22     0  02:18        1.15
  YS02001786           JUNCTION     0.25     0.90     6.93     0  02:19        0.90
  YS02001788           JUNCTION     0.19     0.62     6.60     0  02:25        0.62
  YS02001790           JUNCTION     0.22     0.72     6.37     0  02:26        0.71
  YS02001791           JUNCTION     0.14     0.44     5.91     0  02:25        0.43
  YS02001793           JUNCTION     0.07     0.30     5.13     0  02:26        0.28
  YS02001882           JUNCTION     0.35     1.66     8.38     0  02:19        1.66
  YS02001884           JUNCTION     0.44     1.75     8.37     0  02:19        1.75
  YS02001887           JUNCTION     0.52     1.83     8.37     0  02:24        1.83
  YS02001890           JUNCTION     0.55     1.81     8.32     0  02:18        1.81
  YS02001895           JUNCTION     0.32     1.57     8.31     0  02:23        1.56
  YS02001898           JUNCTION     0.33     1.57     8.30     0  02:19        1.57
  YS02001901           JUNCTION     0.44     1.68     8.29     0  02:19        1.68
  YS02001904           JUNCTION     0.42     1.64     8.27     0  02:19        1.64
  YS02001907           JUNCTION     0.73     1.96     8.25     0  02:18        1.96
  YS02001910           JUNCTION     0.54     1.98     8.49     0  02:19        1.86
  YS02001915           JUNCTION     0.35     1.93     8.65     0  02:19        1.74
  YS02001918           JUNCTION     0.18     1.81     8.88     0  02:19        1.42
  YS02001920           JUNCTION     0.27     2.10     9.11     0  02:19        1.48
  YS02001923           JUNCTION     0.14     2.02     9.28     0  02:19        1.25
  YS02001926           JUNCTION     0.18     1.90     9.35     0  02:19        1.13
  YS02001929           JUNCTION     0.10     1.78     9.47     0  02:19        0.98
  YS02006553           JUNCTION     0.74     1.98     8.26     0  02:23        1.97
  YS02006556           JUNCTION     0.71     1.96     8.27     0  02:18        1.95
  YS02006558           JUNCTION     0.75     2.01     8.27     0  02:18        2.00
  YS02006561           JUNCTION     0.18     0.97     7.63     0  02:18        0.92
  YS02163301           JUNCTION     0.57     1.91     8.43     0  02:18        1.91
  YS02163601           JUNCTION     0.66     2.04     8.44     0  02:18        2.01
  YS02164001           JUNCTION     0.59     1.96     8.41     0  02:18        1.93
  CC-1                 OUTFALL      0.00     0.00     0.00     0  00:00        0.00
  CC-2                 OUTFALL      0.00     0.00     0.00     0  00:00        0.00
  JK-1                 OUTFALL      0.00     0.00     0.00     0  00:00        0.00
  JK-2                 OUTFALL      0.00     0.00     0.00     0  00:00        0.00
  WSC                  OUTFALL      0.24     0.35     1.02     0  02:59        0.35
  CC-storage           STORAGE      0.88     1.74     7.24     0  02:42        1.74
  JK-storage           STORAGE      2.50     4.24     5.04     0  02:21        4.21
  XR-storage           STORAGE      7.81     9.26     7.26     0  08:00        9.26
  
  
  *******************
  Node Inflow Summary
  *******************
  
  -------------------------------------------------------------------------------------------------
                                  Maximum  Maximum                  Lateral       Total        Flow
                                  Lateral    Total  Time of Max      Inflow      Inflow     Balance
                                   Inflow   Inflow   Occurrence      Volume      Volume       Error
  Node                 Type           LPS      LPS  days hr:min    10^6 ltr    10^6 ltr     Percent
  -------------------------------------------------------------------------------------------------
  WS02001211           JUNCTION      7.35   200.46     0  03:16       0.212        5.44       0.611
  WS02001212           JUNCTION      0.00   202.64     0  03:15           0        5.41       0.290
  WS02001213           JUNCTION      0.00   204.00     0  03:54           0        5.39       0.331
  WS02003059           JUNCTION      0.00   208.95     0  03:55           0        5.38       0.592
  WS02003060           JUNCTION     16.53   752.25     0  02:56       0.476        9.35       0.150
  WS02003066           JUNCTION      0.00   537.49     0  02:56           0        3.52       0.034
  WS02003067           JUNCTION      0.00   537.38     0  02:56           0        3.53       0.114
  WS02003069           JUNCTION      0.32   751.88     0  02:57     0.00922        9.33       0.159
  WS02003072           JUNCTION      0.00   751.53     0  02:57           0        9.32       0.216
  WS02003073           JUNCTION      1.82   753.17     0  02:58      0.0524        9.35       0.222
  WS02004138           JUNCTION      0.00   380.00     0  00:00           0        5.25       0.053
  WS02004139           JUNCTION      0.32   191.16     0  00:29     0.00924        5.26       0.509
  WS02004401           JUNCTION      0.00   539.87     0  02:51           0        3.62       0.272
  WS02004402           JUNCTION      0.00   539.37     0  02:51           0        3.61       0.278
  WS02004403           JUNCTION      0.00   539.32     0  02:52           0         3.6       0.273
  WS02004404           JUNCTION      0.16   538.33     0  02:52     0.00467         3.6       0.228
  WS02004405           JUNCTION      0.04   538.53     0  02:52      0.0011        3.59       0.341
  WS02004406           JUNCTION      0.00   539.22     0  02:52           0        3.58       0.568
  WS02004407           JUNCTION      0.00   538.11     0  02:54           0        3.56       0.025
  WS02004409           JUNCTION      0.00   537.96     0  02:54           0        3.56       0.063
  WS02004410           JUNCTION      0.00   537.83     0  02:54           0        3.56       0.109
  WS02004411           JUNCTION      0.00   537.63     0  02:55           0        3.55       0.144
  WS02004412           JUNCTION      0.00   537.66     0  02:55           0        3.55       0.197
  WS02004413           JUNCTION      0.00   537.75     0  02:55           0        3.54       0.354
  WS02006109           JUNCTION      1.23   553.52     0  03:16      0.0354        3.67       0.221
  WS02006110           JUNCTION      0.00   554.76     0  03:16           0        3.66       0.173
  WS02006111           JUNCTION      0.00   560.40     0  02:50           0        3.65       0.010
  WS02006112           JUNCTION      0.00   543.63     0  03:05           0        3.65       0.467
  WS02006113           JUNCTION      0.00   561.13     0  02:07           0        3.65       0.052
  WS02006115           JUNCTION      0.00   551.16     0  03:16           0        3.63       0.169
  WS02006116           JUNCTION      0.00   540.74     0  02:51           0        3.63       0.124
  WS02006228           JUNCTION      0.00   550.38     0  03:16           0        3.63       0.089
  WS02006229           JUNCTION      0.00   549.12     0  03:11           0        3.64       0.107
  WS02006230           JUNCTION     10.28   583.32     0  03:15       0.296        3.64       0.142
  WS02006231           JUNCTION      0.00   568.70     0  03:25           0        3.35      -0.074
  WS02006232           JUNCTION      0.00   567.41     0  03:25           0        3.35       0.200
  WS02006234           JUNCTION      0.00   563.43     0  03:25           0        3.35      -0.185
  WS02006235           JUNCTION      0.00   558.57     0  03:15           0        3.38       0.136
  WS02006238           JUNCTION      0.00   425.39     0  03:22           0        2.36      -0.108
  WS02006239           JUNCTION      0.00   424.16     0  03:22           0        2.34      -0.075
  WS02006240           JUNCTION      0.00   421.01     0  03:22           0        2.33      -0.074
  WS02006242           JUNCTION      0.00   421.02     0  03:22           0        2.32      -0.154
  WS02006243           JUNCTION      0.00   420.33     0  03:22           0        2.32      -0.014
  WS02006245           JUNCTION      0.00   420.48     0  03:36           0        2.33       0.409
  WS02006247           JUNCTION      0.00   420.64     0  03:36           0        2.33       0.005
  WS02006248           JUNCTION      0.00   420.79     0  03:36           0        2.32      -0.070
  WS02006249           JUNCTION      0.00   458.97     0  00:00           0        2.62       0.399
  WS02006251           JUNCTION      0.08   408.81     0  02:07     0.00222        2.62       0.029
  WS02006252           JUNCTION      0.00   400.00     0  00:00           0        2.61      -0.228
  WS02006256           JUNCTION      0.00   347.49     0  01:55           0        1.51      -0.352
  WSF200               JUNCTION      0.00   537.57     0  02:56           0        3.52       0.013
  YS02001580           JUNCTION      0.00    76.08     0  02:13           0      0.0041       1.743
  YS02001583           JUNCTION      0.00   131.61     0  02:12           0      0.0152      -4.316
  YS02001586           JUNCTION    766.00   766.03     0  02:26        1.49         1.5       0.067
  YS02001590           JUNCTION      0.00   318.12     0  02:34           0        1.19      -0.030
  YS02001593           JUNCTION      0.00   318.23     0  02:34           0        1.19      -0.002
  YS02001596           JUNCTION      0.00   317.92     0  02:37           0        1.19      -0.017
  YS02001600           JUNCTION      0.00   317.98     0  02:30           0        1.19       0.022
  YS02001601           JUNCTION   1282.92  1600.25     0  02:25        1.97        3.16       0.020
  YS02001602           JUNCTION      0.00   493.15     0  02:12           0        2.06       0.014
  YS02001605           JUNCTION      0.00   493.68     0  02:12           0        1.96       0.023
  YS02001607           JUNCTION      0.00   493.74     0  02:12           0        1.96       0.092
  YS02001610           JUNCTION      0.00   722.95     0  02:26           0        2.13       0.101
  YS02001613           JUNCTION      0.00   492.12     0  02:12           0        1.75       0.087
  YS02001616           JUNCTION      0.00   490.87     0  02:11           0        1.75       0.014
  YS02001619           JUNCTION   1324.27  1324.27     0  02:26         2.3        3.89      -0.005
  YS02001622           JUNCTION      0.00   957.60     0  02:25           0        3.72      -0.002
  YS02001625           JUNCTION      0.00  1362.81     0  02:26           0        3.91       0.238
  YS02001629           JUNCTION      0.00   904.96     0  02:15           0        3.06       0.006
  YS02001633           JUNCTION    993.50  1274.59     0  02:16         1.5        4.37       0.077
  YS02001641           JUNCTION      0.00  1275.28     0  02:16           0        4.18       0.065
  YS02001644           JUNCTION    849.48  1612.08     0  02:16        1.23         5.4       0.058
  YS02001647           JUNCTION      0.00  1613.29     0  02:16           0        5.05       0.010
  YS02001649           JUNCTION      0.00  1774.74     0  02:17           0        6.23       0.002
  YS02001652           JUNCTION      0.00   891.25     0  02:25           0        1.18      -0.087
  YS02001655           JUNCTION      0.15   891.26     0  02:25     0.00443        1.18       0.013
  YS02001658           JUNCTION      0.00   890.32     0  02:25           0        1.18      -0.060
  YS02001661           JUNCTION      0.00   887.45     0  02:25           0        1.18       0.014
  YS02001664           JUNCTION    866.91   866.91     0  02:25        1.18        1.18      -0.009
  YS02001745           JUNCTION    512.10   512.10     0  02:25       0.672       0.672       0.159
  YS02001748           JUNCTION      0.04   513.87     0  02:25      0.0013       0.673      -0.261
  YS02001751           JUNCTION      0.01   514.93     0  02:25    0.000317       0.681       0.132
  YS02001754           JUNCTION      0.26   515.72     0  02:25     0.00749       0.696      -0.174
  YS02001757           JUNCTION      0.00  3007.14     0  02:24           0        9.22       0.008
  YS02001759           JUNCTION    749.77  1260.07     0  02:23       0.984         2.3      -0.010
  YS02001762           JUNCTION      0.00   676.63     0  02:21           0        1.31      -0.008
  YS02001765           JUNCTION      0.00   676.48     0  02:21           0        1.31      -0.006
  YS02001767           JUNCTION      0.54   676.60     0  02:21      0.0154        1.31       0.006
  YS02001770           JUNCTION   1031.88  1031.88     0  02:25        1.44        1.49      -0.023
  YS02001774           JUNCTION      0.00   541.79     0  02:25           0       0.207       0.472
  YS02001779           JUNCTION      0.01   543.06     0  02:25    0.000144       0.164      -0.315
  YS02001783           JUNCTION      0.00  1164.34     0  02:23           0        3.49       0.004
  YS02001784           JUNCTION      1.06  1165.96     0  02:23      0.0305        3.52       0.013
  YS02001786           JUNCTION      0.06  1165.50     0  02:23     0.00162        3.52       0.019
  YS02001788           JUNCTION      0.07  1165.93     0  02:23     0.00204        3.52       0.007
  YS02001790           JUNCTION      0.15  1176.20     0  02:23     0.00446        3.53       0.023
  YS02001791           JUNCTION      0.00  1284.52     0  02:28           0        3.53      -0.022
  YS02001793           JUNCTION      0.00  1249.97     0  02:26           0        3.53       0.006
  YS02001882           JUNCTION      0.00    27.93     0  02:16           0      0.0123       4.071
  YS02001884           JUNCTION      0.00    55.59     0  02:15           0      0.0481       5.228
  YS02001887           JUNCTION    785.02   786.68     0  02:25        1.02        1.05       0.407
  YS02001890           JUNCTION      0.00   786.38     0  02:25           0        1.01       0.483
  YS02001895           JUNCTION      0.00   517.29     0  02:27           0        0.94       0.141
  YS02001898           JUNCTION      0.00   517.49     0  02:27           0       0.939       0.033
  YS02001901           JUNCTION      0.00   517.55     0  02:27           0       0.941       0.327
  YS02001904           JUNCTION      0.00   517.05     0  02:27           0       0.945       0.283
  YS02001907           JUNCTION      0.00  1812.54     0  02:25           0        2.97       0.594
  YS02001910           JUNCTION      0.00  1297.20     0  02:25           0        2.03       0.347
  YS02001915           JUNCTION    854.75  1296.79     0  02:25        1.25        2.06       0.072
  YS02001918           JUNCTION      0.00   462.52     0  02:25           0       0.836       0.002
  YS02001920           JUNCTION      2.87   461.92     0  02:25      0.0827       0.822       0.105
  YS02001923           JUNCTION      0.04   456.56     0  02:25     0.00109       0.727      -0.001
  YS02001926           JUNCTION      0.05   455.27     0  02:25      0.0015        0.71       0.009
  YS02001929           JUNCTION    442.46   442.46     0  02:25       0.702       0.703      -0.103
  YS02006553           JUNCTION      0.00   805.42     0  02:35           0        2.13       0.555
  YS02006556           JUNCTION      0.00   806.11     0  02:35           0        2.14       0.373
  YS02006558           JUNCTION   1027.54  1164.86     0  02:24        1.41        3.52       0.097
  YS02006561           JUNCTION      0.00  1164.46     0  02:24           0        3.49      -0.001
  YS02163301           JUNCTION      0.00   907.04     0  02:15           0        3.06       0.048
  YS02163601           JUNCTION      0.11  1274.75     0  02:16     0.00317        4.18       0.116
  YS02164001           JUNCTION      0.00  1274.58     0  02:16           0        4.18       0.056
  CC-1                 OUTFALL       0.00   683.00     0  00:00           0        3.83       0.000
  CC-2                 OUTFALL       0.00   683.00     0  00:00           0        3.53       0.000
  JK-1                 OUTFALL       0.00  1000.00     0  00:00           0        1.93       0.000
  JK-2                 OUTFALL       0.00  1000.00     0  00:00           0      0.0484       0.000
  WSC                  OUTFALL       0.00   753.04     0  02:59           0        9.33       0.000
  CC-storage           STORAGE       0.00  3007.67     0  02:24           0        11.4      -0.200
  JK-storage           STORAGE       0.00  1232.38     0  02:29           0        3.68       0.159
  XR-storage           STORAGE     200.00   200.00     0  00:00        5.76        6.36       0.001
  
  
  **********************
  Node Surcharge Summary
  **********************
  
  Surcharging occurs when water rises above the top of the highest conduit.
  ---------------------------------------------------------------------
                                               Max. Height   Min. Depth
                                   Hours       Above Crown    Below Rim
  Node                 Type      Surcharged         Meters       Meters
  ---------------------------------------------------------------------
  WS02006109           JUNCTION        1.61          0.241        1.579
  WS02006110           JUNCTION        1.05          0.135        1.715
  WS02006112           JUNCTION        1.03          0.069        1.611
  WS02006228           JUNCTION        1.61          0.250        1.950
  WS02006229           JUNCTION        1.63          0.302        2.148
  WS02006230           JUNCTION        1.06          0.160        1.410
  WS02006231           JUNCTION        1.11          0.259        1.271
  WS02006232           JUNCTION        1.68          0.462        1.018
  WS02006234           JUNCTION        1.44          0.502        0.738
  WS02006235           JUNCTION        1.61          0.629        0.661
  WS02006238           JUNCTION        1.65          0.665        0.765
  WS02006239           JUNCTION        1.57          0.697        0.593
  WS02006240           JUNCTION        1.57          0.721        0.669
  WS02006242           JUNCTION        1.58          0.744        0.076
  WS02006243           JUNCTION        1.57          0.607        0.163
  WS02006245           JUNCTION        1.57          0.542        0.308
  WS02006247           JUNCTION        1.57          0.507        0.253
  WS02006248           JUNCTION        1.56          0.380        0.000
  WS02006249           JUNCTION        1.56          0.390        0.000
  WS02006251           JUNCTION        1.16          0.430        0.750
  WS02006252           JUNCTION        1.70          1.100        0.000
  WS02006256           JUNCTION        3.41          2.050        0.000
  YS02001580           JUNCTION        0.53          0.450        0.000
  YS02001583           JUNCTION        0.53          0.388        0.112
  YS02001586           JUNCTION        0.63          0.510        0.000
  YS02001590           JUNCTION        0.70          0.750        0.000
  YS02001593           JUNCTION        0.70          0.720        0.120
  YS02001596           JUNCTION        0.81          0.954        0.116
  YS02001600           JUNCTION        0.97          1.190        0.000
  YS02001601           JUNCTION        1.29          1.440        0.000
  YS02001602           JUNCTION        1.18          1.270        0.000
  YS02001605           JUNCTION        1.14          1.176        0.004
  YS02001607           JUNCTION        0.68          0.646        0.034
  YS02001610           JUNCTION        0.71          0.680        0.000
  YS02001613           JUNCTION        0.68          0.660        0.040
  YS02001616           JUNCTION        0.64          0.606        0.004
  YS02001619           JUNCTION        0.63          0.602        0.008
  YS02001622           JUNCTION        0.63          0.572        0.048
  YS02001625           JUNCTION        0.80          0.780        0.000
  YS02001629           JUNCTION        0.58          0.470        0.000
  YS02001633           JUNCTION        0.83          0.986        0.074
  YS02001641           JUNCTION        0.77          0.959        0.141
  YS02001644           JUNCTION        0.74          0.920        0.000
  YS02001647           JUNCTION        0.55          0.758        0.142
  YS02001649           JUNCTION        0.67          0.986        0.064
  YS02001652           JUNCTION        0.49          0.809        0.321
  YS02001655           JUNCTION        0.37          0.691        0.509
  YS02001658           JUNCTION        0.22          0.609        0.691
  YS02001661           JUNCTION        0.03          0.173        1.217
  YS02001748           JUNCTION        0.16          0.222        0.968
  YS02001751           JUNCTION        0.28          0.451        0.749
  YS02001754           JUNCTION        0.43          0.653        0.497
  YS02001757           JUNCTION        0.74          1.037        0.173
  YS02001759           JUNCTION        0.64          1.015        0.195
  YS02001762           JUNCTION        0.61          0.995        0.155
  YS02001765           JUNCTION        0.58          0.956        0.144
  YS02001767           JUNCTION        0.55          0.931        0.099
  YS02001770           JUNCTION        0.52          0.909        0.011
  YS02001774           JUNCTION        0.59          0.989        0.061
  YS02001779           JUNCTION        0.42          0.680        0.000
  YS02001783           JUNCTION        0.43          0.490        1.110
  YS02001784           JUNCTION        0.41          0.352        1.138
  YS02001786           JUNCTION        0.31          0.105        1.325
  YS02001882           JUNCTION        0.38          0.661        0.169
  YS02001884           JUNCTION        0.39          0.692        0.178
  YS02001887           JUNCTION        0.42          0.778        0.172
  YS02001890           JUNCTION        0.43          0.760        0.000
  YS02001895           JUNCTION        0.37          0.566        0.184
  YS02001898           JUNCTION        0.36          0.539        0.201
  YS02001901           JUNCTION        0.41          0.680        0.190
  YS02001904           JUNCTION        0.40          0.643        0.207
  YS02001907           JUNCTION        0.65          0.950        0.000
  YS02001910           JUNCTION        0.46          0.981        0.119
  YS02001915           JUNCTION        0.37          0.932        0.068
  YS02001918           JUNCTION        0.30          0.810        0.000
  YS02001920           JUNCTION        0.31          1.105        0.035
  YS02001923           JUNCTION        0.06          0.807        0.013
  YS02001926           JUNCTION        0.08          0.900        0.000
  YS02001929           JUNCTION        0.01          0.780        0.000
  YS02006553           JUNCTION        0.67          0.978        0.212
  YS02006556           JUNCTION        0.55          0.922        0.428
  YS02006558           JUNCTION        0.53          0.905        0.495
  YS02006561           JUNCTION        0.26          0.174        0.976
  YS02163301           JUNCTION        0.81          0.914        0.116
  YS02163601           JUNCTION        0.86          1.040        0.040
  YS02164001           JUNCTION        0.77          0.956        0.144
  
  
  *********************
  Node Flooding Summary
  *********************
  
  Flooding refers to all water that overflows a node, whether it ponds or not.
  --------------------------------------------------------------------------
                                                             Total   Maximum
                                 Maximum   Time of Max       Flood    Ponded
                        Hours       Rate    Occurrence      Volume     Depth
  Node                 Flooded       LPS   days hr:min    10^6 ltr    Meters
  --------------------------------------------------------------------------
  WS02006248              0.01      4.71      0  03:26       0.000     0.000
  WS02006249              1.13    114.59      0  02:07       0.281     0.000
  WS02006252              0.01    245.63      0  00:00       0.000     0.000
  WS02006256              1.40    343.83      0  01:55       0.492     0.000
  YS02001580              0.01     39.87      0  02:13       0.000     0.000
  YS02001586              0.41    448.50      0  02:26       0.300     0.000
  YS02001590              0.01      5.39      0  02:13       0.000     0.000
  YS02001600              0.01      2.56      0  02:13       0.000     0.000
  YS02001601              0.56   1202.08      0  02:25       1.096     0.000
  YS02001602              0.46     62.05      0  02:31       0.097     0.000
  YS02001610              0.42    722.80      0  02:26       0.540     0.000
  YS02001625              0.39   1362.72      0  02:26       1.030     0.000
  YS02001629              0.09     32.86      0  02:25       0.004     0.000
  YS02001644              0.19   1063.07      0  02:25       0.346     0.000
  YS02001779              0.15    542.51      0  02:25       0.147     0.000
  YS02001890              0.15    271.56      0  02:25       0.063     0.000
  YS02001907              0.25   1659.97      0  02:25       0.835     0.000
  YS02001918              0.01     93.69      0  02:19       0.001     0.000
  YS02001926              0.01     18.94      0  02:19       0.000     0.000
  YS02001929              0.01    239.72      0  02:19       0.001     0.000
  
  
  **********************
  Storage Volume Summary
  **********************
  
  ------------------------------------------------------------------------------------------------
                         Average    Avg   Evap  Exfil     Maximum    Max    Time of Max    Maximum
                          Volume   Pcnt   Pcnt   Pcnt      Volume   Pcnt     Occurrence    Outflow
  Storage Unit           1000 m³   Full   Loss   Loss     1000 m³   Full    days hr:min        LPS
  ------------------------------------------------------------------------------------------------
  CC-storage               2.454   38.3    0.0    0.0       4.839   75.5       0  02:42    1783.53
  JK-storage               0.125   43.1    0.0    0.0       0.213   73.1       0  02:21    2300.00
  XR-storage               0.937   65.1    0.0    0.0       1.111   77.2       0  08:00     380.00
  
  
  ***********************
  Outfall Loading Summary
  ***********************
  
  -----------------------------------------------------------
                         Flow       Avg       Max       Total
                         Freq      Flow      Flow      Volume
  Outfall Node           Pcnt       LPS       LPS    10^6 ltr
  -----------------------------------------------------------
  CC-1                  31.89    683.00    683.00       3.826
  CC-2                  29.13    683.00    683.00       3.525
  JK-1                  13.87   1000.00   1000.00       1.927
  JK-2                   0.24   1000.00   1000.00       0.048
  WSC                   99.93    392.23    753.04       9.331
  -----------------------------------------------------------
  System                35.01   3758.23   3366.23      18.658
  
  
  ********************
  Link Flow Summary
  ********************
  
  -----------------------------------------------------------------------------
                                 Maximum  Time of Max   Maximum    Max/    Max/
                                  |Flow|   Occurrence   |Veloc|    Full    Full
  Link                 Type          LPS  days hr:min     m/sec    Flow   Depth
  -----------------------------------------------------------------------------
  1                    CONDUIT    753.04     0  02:59      3.08    0.26    0.35
  WS02001211WS02001212 CONDUIT    202.64     0  03:15      0.54    0.15    0.51
  WS02001212WS02001213 CONDUIT    204.00     0  03:54      1.04    0.31    0.36
  WS02001213WS02003059 CONDUIT    208.95     0  03:55      0.47    0.34    0.67
  WS02003059WS02003060 CONDUIT    216.04     0  03:54      0.67    0.14    0.59
  WS02003060WS02003069 CONDUIT    751.56     0  02:57      1.77    0.29    0.40
  WS02003066WSF200     CONDUIT    537.57     0  02:56      2.74    0.09    0.23
  WS02003067WS02003066 CONDUIT    537.49     0  02:56      1.21    0.17    0.42
  WS02003069WS02003072 CONDUIT    751.53     0  02:57      1.51    0.36    0.45
  WS02003072WS02003073 CONDUIT    751.35     0  02:58      1.60    1.62    0.43
  WS02004138WS02004139 CONDUIT    190.84     0  00:29      2.17    0.04    0.33
  WS02004139WS02001211 CONDUIT    193.11     0  03:16      0.54    0.24    0.47
  WS02004401WS02004402 CONDUIT    539.37     0  02:51      0.97    0.65    0.86
  WS02004402WS02004403 CONDUIT    539.32     0  02:52      0.97    0.77    0.88
  WS02004403WS02004404 CONDUIT    538.16     0  02:52      0.92    0.39    0.93
  WS02004404WS02004405 CONDUIT    538.49     0  02:52      1.08    5.28    0.96
  WS02004405WS02004406 CONDUIT    539.22     0  02:52      0.99    1.06    0.96
  WS02004406WS02004407 CONDUIT    538.11     0  02:54      1.04    0.24    0.63
  WS02004407WS02004409 CONDUIT    537.96     0  02:54      1.53    0.19    0.48
  WS02004409WS02004410 CONDUIT    537.83     0  02:54      0.99    0.70    0.67
  WS02004410WS02004411 CONDUIT    537.63     0  02:55      0.94    0.73    0.69
  WS02004411WS02004412 CONDUIT    537.66     0  02:55      0.92    0.76    0.69
  WS02004412WS02004413 CONDUIT    537.75     0  02:55      0.82    0.36    0.78
  WS02004413WS02003067 CONDUIT    537.38     0  02:56      1.11    0.23    0.59
  WS02006109WS02006110 CONDUIT    554.76     0  03:16      1.10    1.07    1.00
  WS02006110WS02006113 CONDUIT    561.13     0  02:07      1.35    0.51    0.78
  WS02006111WS02006112 CONDUIT    543.63     0  03:05      1.82    0.26    0.67
  WS02006112WS02006115 CONDUIT    551.16     0  03:16      0.79    0.33    0.87
  WS02006113WS02006111 CONDUIT    560.40     0  02:50      2.47    0.67    0.46
  WS02006115WS02006116 CONDUIT    540.74     0  02:51      0.97    0.69    0.76
  WS02006116WS02004401 CONDUIT    539.87     0  02:51      0.98    0.74    0.84
  WS02006228WS02006109 CONDUIT    552.29     0  03:16      1.10    2.41    1.00
  WS02006229WS02006228 CONDUIT    550.38     0  03:16      1.15    1.82    1.00
  WS02006230WS02006229 CONDUIT    549.12     0  03:11      1.43   12.22    1.00
  WS02006231WS02006230 CONDUIT    573.05     0  03:15      1.55    8.69    1.00
  WS02006232WS02006231 CONDUIT    568.70     0  03:25      1.48    1.19    1.00
  WS02006234WS02006232 CONDUIT    567.41     0  03:25      1.47    1.15    1.00
  WS02006235WS02006234 CONDUIT    563.43     0  03:25      1.46    5.94    1.00
  WS02006238WS02006235 CONDUIT    427.61     0  03:22      1.56    0.95    1.00
  WS02006239WS02006238 CONDUIT    425.39     0  03:22      1.11    1.36    1.00
  WS02006240WS02006239 CONDUIT    424.16     0  03:22      1.24    1.33    1.00
  WS02006242WS02006240 CONDUIT    421.01     0  03:22      1.12    1.67    1.00
  WS02006243WS02006242 CONDUIT    421.02     0  03:22      1.39    0.90    1.00
  WS02006245WS02006243 CONDUIT    420.33     0  03:22      1.45    1.24    1.00
  WS02006247WS02006245 CONDUIT    420.48     0  03:36      1.44    3.33    1.00
  WS02006248WS02006247 CONDUIT    420.64     0  03:36      1.45    0.92    1.00
  WS02006249WS02006248 CONDUIT    420.79     0  03:36      1.37    2.31    1.00
  WS02006251WS02006249 CONDUIT    458.97     0  00:00      1.99    1.32    1.00
  WS02006252WS02006251 CONDUIT    408.73     0  02:07     25.11    1.50    1.00
  WS02006256WS02006235 CONDUIT    289.22     0  01:53      4.23    3.06    1.00
  WSF200WS02003060     CONDUIT    538.02     0  02:56      1.76    0.12    0.32
  YS02001580YS02001583 CONDUIT     76.08     0  02:13      0.55    0.29    1.00
  YS02001583YS02001586 CONDUIT    131.61     0  02:12      0.55    0.20    1.00
  YS02001586YS02001590 CONDUIT    318.12     0  02:34      1.26    0.56    1.00
  YS02001590YS02001593 CONDUIT    318.23     0  02:34      1.13    2.00    1.00
  YS02001593YS02001596 CONDUIT    317.92     0  02:37      1.74    0.50    1.00
  YS02001596YS02001600 CONDUIT    317.98     0  02:30      1.26    0.62    1.00
  YS02001600YS02001601 CONDUIT    318.07     0  02:34      1.12    0.55    1.00
  YS02001601YS02001602 CONDUIT    493.15     0  02:12      1.74    1.78    1.00
  YS02001602YS02001605 CONDUIT    493.68     0  02:12      1.75   10.45    1.00
  YS02001605YS02001607 CONDUIT    493.74     0  02:12      1.75    2.71    1.00
  YS02001607YS02001610 CONDUIT    492.72     0  02:12      0.63    0.47    1.00
  YS02001610YS02001613 CONDUIT    492.12     0  02:12      0.63    0.57    1.00
  YS02001613YS02001616 CONDUIT    490.87     0  02:11      0.63    0.42    1.00
  YS02001616YS02001619 CONDUIT    490.15     0  02:12      0.65    0.85    1.00
  YS02001619YS02001622 CONDUIT    957.60     0  02:25      1.22    1.41    1.00
  YS02001622YS02001625 CONDUIT    958.45     0  02:25      1.22    0.51    1.00
  YS02001625YS02001629 CONDUIT    904.96     0  02:15      1.15    0.43    1.00
  YS02001629YS02163301 CONDUIT    907.04     0  02:15      1.15    1.12    1.00
  YS02001633YS02163601 CONDUIT   1274.64     0  02:16      1.62    1.34    1.00
  YS02001641YS02001644 CONDUIT   1276.07     0  02:15      1.62    4.13    1.00
  YS02001644YS02001647 CONDUIT   1613.29     0  02:16      2.08    0.95    1.00
  YS02001647YS02001649 CONDUIT   1612.50     0  02:16      2.22    0.85    1.00
  YS02001649YS02001757 CONDUIT   1773.63     0  02:17      2.27    1.08    1.00
  YS02001652YS02001649 CONDUIT    891.45     0  02:25      1.14    0.44    1.00
  YS02001655YS02001652 CONDUIT    891.25     0  02:25      1.24    0.43    1.00
  YS02001658YS02001655 CONDUIT    891.11     0  02:25      1.83    0.38    1.00
  YS02001661YS02001658 CONDUIT    890.32     0  02:25      2.16    0.35    1.00
  YS02001664YS02001661 CONDUIT    887.45     0  02:25      2.07    0.28    0.79
  YS02001745YS02001748 CONDUIT    513.82     0  02:25      1.95    0.20    0.91
  YS02001748YS02001751 CONDUIT    514.92     0  02:25      1.55    0.26    1.00
  YS02001751YS02001754 CONDUIT    515.46     0  02:25      1.37    0.25    1.00
  YS02001754YS02001757 CONDUIT    515.44     0  02:25      0.66    0.21    1.00
  YS02001757CaochengTiaoxuchi CONDUIT   3007.67     0  02:24      3.83    1.30    1.00
  YS02001759YS02001757 CONDUIT   1261.39     0  02:23      1.61    0.90    1.00
  YS02001762YS02001759 CONDUIT    676.54     0  02:21      0.86    0.78    1.00
  YS02001765YS02001762 CONDUIT    676.63     0  02:21      0.86    0.63    1.00
  YS02001767YS02001765 CONDUIT    676.48     0  02:21      0.86    0.85    1.00
  YS02001770YS02001767 CONDUIT    676.06     0  02:21      0.86    2.68    1.00
  YS02001774YS02001770 CONDUIT    541.79     0  02:25      0.69    0.35    1.00
  YS02001779YS02001774 CONDUIT    543.06     0  02:25      0.69    0.27    1.00
  YS02001783YS02001784 CONDUIT   1164.90     0  02:23      2.32    1.61    1.00
  YS02001784YS02001785 CONDUIT   1165.45     0  02:23      2.32    2.71    1.00
  YS02001786YS02001788 CONDUIT   1165.86     0  02:23      2.48    2.25    0.89
  YS02001788YS02001790 CONDUIT   1176.04     0  02:23      2.72    0.87    0.84
  YS02001790YS02001791 CONDUIT   1284.52     0  02:28      3.43    1.40    0.70
  YS02001791YS02001793 CONDUIT   1249.97     0  02:26      6.69    0.54    0.45
  YS02001793JiankangQianchi CONDUIT   1232.38     0  02:29      2.42    0.10    0.65
  YS02001882YS02001884 CONDUIT     27.93     0  02:16      0.12    0.03    1.00
  YS02001884YS02001887 CONDUIT     55.59     0  02:15      0.09    0.07    1.00
  YS02001887YS02001890 CONDUIT    786.38     0  02:25      1.00    1.35    1.00
  YS02001890YS02001895 CONDUIT    517.29     0  02:27      0.66    0.24    1.00
  YS02001895YS02001898 CONDUIT    517.49     0  02:27      0.66    0.90    1.00
  YS02001898YS02001901 CONDUIT    517.55     0  02:27      0.66    0.33    1.00
  YS02001901YS02001904 CONDUIT    517.05     0  02:27      0.66    0.80    1.00
  YS02001904YS02001907 CONDUIT    517.12     0  02:27      0.66    0.18    1.00
  YS02001907YS02006553 CONDUIT    805.42     0  02:35      0.89    0.95    1.00
  YS02001910YS02001907 CONDUIT   1297.10     0  02:25      1.65    0.73    1.00
  YS02001915YS02001910 CONDUIT   1297.20     0  02:25      1.65    0.64    1.00
  YS02001918YS02001915 CONDUIT    462.75     0  02:25      0.59    0.26    1.00
  YS02001920YS02001918 CONDUIT    462.52     0  02:25      0.65    0.45    1.00
  YS02001923YS02001920 CONDUIT    459.05     0  02:25      0.71    0.21    1.00
  YS02001926YS02001923 CONDUIT    456.53     0  02:25      0.96    0.65    1.00
  YS02001929YS02001926 CONDUIT    455.21     0  02:25      1.11    0.22    1.00
  YS02006553YS02006556 CONDUIT    806.11     0  02:35      1.03    0.69    1.00
  YS02006556YS02006558 CONDUIT    808.08     0  02:35      1.03    0.64    1.00
  YS02006558YS02006561 CONDUIT   1164.46     0  02:24      4.12    2.57    1.00
  YS02006561YS02001783 CONDUIT   1164.34     0  02:23      2.32    0.60    1.00
  YS02163301YS02001633 CONDUIT    908.16     0  02:15      1.16    0.85    1.00
  YS02163601YS02164001 CONDUIT   1274.58     0  02:16      1.62    1.13    1.00
  YS02164001YS02001641 CONDUIT   1275.28     0  02:16      1.62    1.74    1.00
  CC-R1                PUMP       683.00     0  00:00              1.00
  CC-R2                PUMP       683.00     0  00:00              1.00
  CC-S1                PUMP       200.00     0  00:00              1.00
  CC-S2                PUMP       200.00     0  00:00              1.00
  JK-R1                PUMP      1000.00     0  00:00              1.00
  JK-R2                PUMP      1000.00     0  00:00              1.00
  JK-S                 PUMP       300.00     0  00:00              1.00
  XR-1                 PUMP        95.00     0  00:00              1.00
  XR-2                 PUMP        95.00     0  00:00              1.00
  XR-3                 PUMP        95.00     0  00:00              1.00
  XR-4                 PUMP        95.00     0  00:00              1.00
  
  
  ***************************
  Flow Classification Summary
  ***************************
  
  -------------------------------------------------------------------------------------
                      Adjusted    ---------- Fraction of Time in Flow Class ---------- 
                       /Actual         Up    Down  Sub   Sup   Up    Down  Norm  Inlet 
  Conduit               Length    Dry  Dry   Dry   Crit  Crit  Crit  Crit  Ltd   Ctrl  
  -------------------------------------------------------------------------------------
  1                       1.00   0.00  0.00  0.00  0.00  1.00  0.00  0.00  0.14  0.00
  WS02001211WS02001212    1.00   0.00  0.02  0.00  0.98  0.00  0.00  0.00  0.00  0.00
  WS02001212WS02001213    1.00   0.02  0.00  0.00  0.22  0.00  0.75  0.00  0.00  0.00
  WS02001213WS02003059    1.00   0.00  0.01  0.00  0.99  0.00  0.00  0.00  0.00  0.00
  WS02003059WS02003060    1.00   0.00  0.00  0.00  1.00  0.00  0.00  0.00  0.03  0.00
  WS02003060WS02003069    1.00   0.00  0.00  0.00  0.98  0.02  0.00  0.00  0.71  0.00
  WS02003066WSF200        1.00   0.13  0.00  0.00  0.00  0.87  0.00  0.00  0.71  0.00
  WS02003067WS02003066    1.00   0.10  0.02  0.00  0.88  0.00  0.00  0.00  0.00  0.00
  WS02003069WS02003072    1.00   0.00  0.00  0.00  1.00  0.00  0.00  0.00  0.75  0.00
  WS02003072WS02003073    1.00   0.00  0.00  0.00  0.00  0.00  0.00  1.00  0.00  0.00
  WS02004138WS02004139    1.00   0.00  0.00  0.00  0.97  0.01  0.00  0.02  0.98  0.00
  WS02004139WS02001211    1.00   0.00  0.00  0.00  0.99  0.00  0.00  0.00  0.00  0.00
  WS02004401WS02004402    1.00   0.02  0.00  0.00  0.98  0.00  0.00  0.00  0.00  0.00
  WS02004402WS02004403    1.00   0.02  0.00  0.00  0.97  0.00  0.00  0.00  0.00  0.00
  WS02004403WS02004404    1.00   0.00  0.03  0.00  0.97  0.00  0.00  0.00  0.00  0.00
  WS02004404WS02004405    1.00   0.00  0.00  0.00  1.00  0.00  0.00  0.00  0.00  0.00
  WS02004405WS02004406    1.00   0.00  0.00  0.00  1.00  0.00  0.00  0.00  0.00  0.00
  WS02004406WS02004407    1.00   0.00  0.05  0.00  0.95  0.00  0.00  0.00  0.00  0.00
  WS02004407WS02004409    1.00   0.05  0.00  0.00  0.94  0.01  0.00  0.00  0.94  0.00
  WS02004409WS02004410    1.00   0.05  0.00  0.00  0.95  0.00  0.00  0.00  0.03  0.00
  WS02004410WS02004411    1.00   0.05  0.00  0.00  0.95  0.00  0.00  0.00  0.01  0.00
  WS02004411WS02004412    1.00   0.05  0.00  0.00  0.95  0.00  0.00  0.00  0.00  0.00
  WS02004412WS02004413    1.00   0.05  0.00  0.00  0.94  0.00  0.00  0.00  0.01  0.00
  WS02004413WS02003067    1.00   0.06  0.04  0.00  0.00  0.00  0.90  0.00  0.00  0.00
  WS02006109WS02006110    1.00   0.00  0.01  0.00  0.98  0.00  0.01  0.00  0.00  0.00
  WS02006110WS02006113    1.00   0.01  0.01  0.00  0.98  0.00  0.00  0.00  0.00  0.00
  WS02006111WS02006112    1.00   0.02  0.00  0.00  0.98  0.00  0.00  0.00  0.98  0.00
  WS02006112WS02006115    1.00   0.02  0.00  0.00  0.97  0.00  0.00  0.00  0.00  0.00
  WS02006113WS02006111    1.00   0.02  0.00  0.00  0.00  0.98  0.00  0.00  0.09  0.00
  WS02006115WS02006116    1.00   0.02  0.00  0.00  0.97  0.00  0.00  0.01  0.00  0.00
  WS02006116WS02004401    1.00   0.02  0.00  0.00  0.98  0.00  0.00  0.00  0.00  0.00
  WS02006228WS02006109    1.00   0.00  0.00  0.00  1.00  0.00  0.00  0.00  0.00  0.00
  WS02006229WS02006228    1.00   0.00  0.00  0.00  0.99  0.00  0.00  0.01  0.00  0.00
  WS02006230WS02006229    1.00   0.00  0.00  0.00  0.99  0.00  0.00  0.01  0.00  0.00
  WS02006231WS02006230    1.00   0.00  0.00  0.00  0.21  0.00  0.78  0.00  0.00  0.00
  WS02006232WS02006231    1.00   0.00  0.00  0.00  0.99  0.00  0.01  0.00  0.00  0.00
  WS02006234WS02006232    1.00   0.00  0.00  0.00  1.00  0.00  0.00  0.00  0.48  0.00
  WS02006235WS02006234    1.00   0.00  0.00  0.00  0.48  0.00  0.52  0.00  0.00  0.00
  WS02006238WS02006235    1.00   0.00  0.00  0.00  1.00  0.00  0.00  0.00  0.00  0.00
  WS02006239WS02006238    1.00   0.00  0.00  0.00  1.00  0.00  0.00  0.00  0.58  0.00
  WS02006240WS02006239    1.00   0.00  0.00  0.00  0.36  0.00  0.00  0.64  0.01  0.00
  WS02006242WS02006240    1.00   0.00  0.00  0.00  1.00  0.00  0.00  0.00  0.00  0.00
  WS02006243WS02006242    1.00   0.00  0.00  0.00  0.99  0.00  0.00  0.01  0.73  0.00
  WS02006245WS02006243    1.00   0.00  0.00  0.00  0.42  0.00  0.00  0.57  0.00  0.00
  WS02006247WS02006245    1.00   0.00  0.00  0.00  0.99  0.00  0.00  0.01  0.00  0.00
  WS02006248WS02006247    1.00   0.00  0.00  0.00  0.99  0.00  0.00  0.01  0.18  0.00
  WS02006249WS02006248    1.00   0.00  0.00  0.00  0.31  0.00  0.69  0.00  0.00  0.00
  WS02006251WS02006249    1.00   0.00  0.00  0.00  0.99  0.01  0.00  0.00  0.72  0.00
  WS02006252WS02006251    1.00   0.00  0.74  0.00  0.14  0.00  0.12  0.00  0.01  0.00
  WS02006256WS02006235    1.00   0.00  0.00  0.00  1.00  0.00  0.00  0.00  0.00  0.00
  WSF200WS02003060        1.00   0.00  0.13  0.00  0.67  0.20  0.00  0.00  0.66  0.00
  YS02001580YS02001583    1.00   0.27  0.55  0.00  0.18  0.00  0.00  0.00  0.64  0.00
  YS02001583YS02001586    1.00   0.48  0.29  0.00  0.23  0.00  0.00  0.00  0.64  0.00
  YS02001586YS02001590    1.00   0.13  0.00  0.00  0.41  0.04  0.00  0.42  0.36  0.00
  YS02001590YS02001593    1.00   0.13  0.01  0.00  0.10  0.00  0.76  0.00  0.00  0.00
  YS02001593YS02001596    1.00   0.13  0.00  0.00  0.12  0.01  0.00  0.74  0.02  0.00
  YS02001596YS02001600    1.00   0.14  0.00  0.00  0.18  0.01  0.00  0.67  0.05  0.00
  YS02001600YS02001601    1.00   0.13  0.01  0.00  0.86  0.00  0.00  0.00  0.61  0.00
  YS02001601YS02001602    1.00   0.13  0.01  0.00  0.87  0.00  0.00  0.00  0.00  0.00
  YS02001602YS02001605    1.00   0.13  0.00  0.00  0.86  0.00  0.00  0.00  0.00  0.00
  YS02001605YS02001607    1.00   0.14  0.00  0.00  0.86  0.00  0.00  0.00  0.00  0.00
  YS02001607YS02001610    1.00   0.13  0.01  0.00  0.86  0.00  0.00  0.00  0.01  0.00
  YS02001610YS02001613    1.00   0.13  0.00  0.00  0.87  0.00  0.00  0.00  0.00  0.00
  YS02001613YS02001616    1.00   0.13  0.00  0.00  0.87  0.00  0.00  0.00  0.00  0.00
  YS02001616YS02001619    1.00   0.13  0.00  0.00  0.87  0.00  0.00  0.00  0.00  0.00
  YS02001619YS02001622    1.00   0.13  0.00  0.00  0.87  0.00  0.00  0.00  0.33  0.00
  YS02001622YS02001625    1.00   0.13  0.00  0.00  0.87  0.00  0.00  0.00  0.04  0.00
  YS02001625YS02001629    1.00   0.13  0.05  0.00  0.15  0.00  0.67  0.00  0.00  0.00
  YS02001629YS02163301    1.00   0.15  0.01  0.00  0.84  0.00  0.00  0.00  0.00  0.00
  YS02001633YS02163601    1.00   0.00  0.01  0.00  0.99  0.00  0.00  0.00  0.15  0.00
  YS02001641YS02001644    1.00   0.00  0.01  0.00  0.99  0.00  0.00  0.00  0.00  0.00
  YS02001644YS02001647    1.00   0.00  0.17  0.00  0.83  0.00  0.00  0.00  0.00  0.00
  YS02001647YS02001649    1.00   0.00  0.17  0.00  0.55  0.28  0.00  0.00  0.58  0.00
  YS02001649YS02001757    1.00   0.00  0.00  0.00  0.70  0.30  0.00  0.00  0.50  0.00
  YS02001652YS02001649    1.00   0.00  0.00  0.00  0.96  0.04  0.00  0.00  0.76  0.00
  YS02001655YS02001652    1.00   0.00  0.00  0.00  0.17  0.01  0.00  0.82  0.04  0.00
  YS02001658YS02001655    1.00   0.00  0.14  0.00  0.66  0.20  0.00  0.00  0.70  0.00
  YS02001661YS02001658    1.00   0.14  0.00  0.00  0.53  0.33  0.00  0.00  0.72  0.00
  YS02001664YS02001661    1.00   0.13  0.00  0.00  0.78  0.09  0.00  0.00  0.86  0.00
  YS02001745YS02001748    1.00   0.00  0.00  0.00  0.09  0.01  0.00  0.91  0.04  0.00
  YS02001748YS02001751    1.00   0.00  0.00  0.00  0.83  0.17  0.00  0.00  0.74  0.00
  YS02001751YS02001754    1.00   0.00  0.00  0.00  0.14  0.01  0.00  0.85  0.03  0.00
  YS02001754YS02001757    1.00   0.00  0.00  0.00  1.00  0.00  0.00  0.00  0.84  0.00
  YS02001757CaochengTiaoxuchi    1.00   0.00  0.00  0.00  1.00  0.00  0.00  0.00  0.84  0.00
  YS02001759YS02001757    1.00   0.00  0.00  0.00  1.00  0.00  0.00  0.00  0.62  0.00
  YS02001762YS02001759    1.00   0.00  0.00  0.00  1.00  0.00  0.00  0.00  0.05  0.00
  YS02001765YS02001762    1.00   0.00  0.00  0.00  1.00  0.00  0.00  0.00  0.73  0.00
  YS02001767YS02001765    1.00   0.00  0.00  0.00  1.00  0.00  0.00  0.00  0.00  0.00
  YS02001770YS02001767    1.00   0.00  0.00  0.00  1.00  0.00  0.00  0.00  0.00  0.00
  YS02001774YS02001770    1.00   0.00  0.13  0.00  0.61  0.00  0.26  0.00  0.03  0.00
  YS02001779YS02001774    1.00   0.00  0.00  0.00  1.00  0.00  0.00  0.00  0.77  0.00
  YS02001783YS02001784    1.00   0.00  0.18  0.00  0.82  0.00  0.00  0.00  0.57  0.00
  YS02001784YS02001785    1.00   0.00  0.00  0.00  1.00  0.00  0.00  0.00  0.17  0.00
  YS02001786YS02001788    1.00   0.00  0.00  0.00  0.80  0.20  0.00  0.00  0.00  0.00
  YS02001788YS02001790    1.00   0.00  0.00  0.00  0.21  0.79  0.00  0.00  0.81  0.00
  YS02001790YS02001791    1.00   0.00  0.00  0.00  0.01  0.99  0.00  0.00  0.16  0.00
  YS02001791YS02001793    1.00   0.00  0.00  0.00  0.00  1.00  0.00  0.00  0.01  0.00
  YS02001793JiankangQianchi    1.00   0.00  0.00  0.00  0.99  0.01  0.00  0.00  0.96  0.00
  YS02001882YS02001884    1.00   0.15  0.01  0.00  0.84  0.00  0.00  0.00  0.00  0.00
  YS02001884YS02001887    1.00   0.06  0.05  0.00  0.89  0.00  0.00  0.00  0.00  0.00
  YS02001887YS02001890    1.00   0.00  0.00  0.00  0.97  0.00  0.03  0.00  0.00  0.00
  YS02001890YS02001895    1.00   0.00  0.16  0.00  0.83  0.00  0.00  0.00  0.00  0.00
  YS02001895YS02001898    1.00   0.17  0.00  0.00  0.81  0.00  0.02  0.00  0.00  0.00
  YS02001898YS02001901    1.00   0.17  0.00  0.00  0.83  0.00  0.00  0.00  0.01  0.00
  YS02001901YS02001904    1.00   0.17  0.00  0.00  0.83  0.00  0.00  0.00  0.00  0.00
  YS02001904YS02001907    1.00   0.00  0.16  0.00  0.83  0.00  0.00  0.00  0.00  0.00
  YS02001907YS02006553    1.00   0.00  0.02  0.00  0.98  0.00  0.00  0.00  0.00  0.00
  YS02001910YS02001907    1.00   0.00  0.00  0.00  0.97  0.00  0.00  0.03  0.12  0.00
  YS02001915YS02001910    1.00   0.00  0.00  0.00  0.97  0.03  0.00  0.00  0.16  0.00
  YS02001918YS02001915    1.00   0.00  0.01  0.00  0.98  0.02  0.00  0.00  0.77  0.00
  YS02001920YS02001918    1.00   0.00  0.01  0.00  0.99  0.00  0.00  0.00  0.00  0.00
  YS02001923YS02001920    1.00   0.00  0.00  0.00  1.00  0.00  0.00  0.00  0.94  0.00
  YS02001926YS02001923    1.00   0.00  0.07  0.00  0.05  0.00  0.88  0.00  0.00  0.00
  YS02001929YS02001926    1.00   0.00  0.13  0.00  0.87  0.00  0.00  0.00  0.83  0.00
  YS02006553YS02006556    1.00   0.01  0.00  0.00  0.99  0.00  0.00  0.00  0.03  0.00
  YS02006556YS02006558    1.00   0.00  0.00  0.00  1.00  0.00  0.00  0.00  0.00  0.00
  YS02006558YS02006561    1.00   0.18  0.00  0.00  0.04  0.78  0.00  0.00  0.17  0.00
  YS02006561YS02001783    1.00   0.18  0.00  0.00  0.08  0.74  0.00  0.00  0.70  0.00
  YS02163301YS02001633    1.00   0.00  0.15  0.00  0.85  0.00  0.00  0.00  0.00  0.00
  YS02163601YS02164001    1.00   0.00  0.08  0.00  0.92  0.00  0.00  0.00  0.00  0.00
  YS02164001YS02001641    1.00   0.01  0.07  0.00  0.92  0.00  0.00  0.00  0.05  0.00
  
  
  *************************
  Conduit Surcharge Summary
  *************************
  
  ----------------------------------------------------------------------------
                                                           Hours        Hours 
                         --------- Hours Full --------   Above Full   Capacity
  Conduit                Both Ends  Upstream  Dnstream   Normal Flow   Limited
  ----------------------------------------------------------------------------
  WS02003072WS02003073        0.01      0.01      0.01      1.75         0.01
  WS02004404WS02004405        0.01      0.01      0.01      2.00         0.01
  WS02004405WS02004406        0.01      0.01      0.01      0.99         0.01
  WS02006109WS02006110        1.05      1.05      1.67      1.09         0.01
  WS02006110WS02006113        0.01      0.01      1.65      0.01         0.01
  WS02006111WS02006112        0.01      0.01      1.70      0.01         0.01
  WS02006112WS02006115        0.01      0.01      1.02      0.01         0.01
  WS02006228WS02006109        1.61      1.67      1.61      1.80         1.61
  WS02006229WS02006228        1.61      1.63      1.61      1.75         1.60
  WS02006230WS02006229        1.70      1.72      1.70      2.32         1.70
  WS02006231WS02006230        1.06      1.06      1.14      2.13         0.01
  WS02006232WS02006231        1.11      1.11      1.68      1.15         0.01
  WS02006234WS02006232        1.57      1.57      1.68      1.14         1.14
  WS02006235WS02006234        1.43      1.43      1.61      2.07         0.01
  WS02006238WS02006235        1.64      1.64      1.67      0.01         0.01
  WS02006239WS02006238        1.62      1.62      1.65      1.60         1.41
  WS02006240WS02006239        1.57      1.58      1.57      1.60         1.28
  WS02006242WS02006240        1.57      1.57      1.59      1.64         0.01
  WS02006243WS02006242        1.57      1.57      1.58      0.01         0.03
  WS02006245WS02006243        1.57      1.57      1.57      0.55         0.69
  WS02006247WS02006245        1.57      1.57      1.57      1.88         1.56
  WS02006248WS02006247        1.56      1.56      1.57      0.01         0.03
  WS02006249WS02006248        1.56      1.56      1.56      1.87         0.01
  WS02006251WS02006249        1.56      1.56      1.56      1.63         1.50
  WS02006252WS02006251        1.70      1.70      1.70      1.70         0.01
  WS02006256WS02006235        2.08      2.09      3.39      1.40         0.01
  YS02001580YS02001583        0.52      0.52      0.56      0.01         0.01
  YS02001583YS02001586        0.53      0.53      0.63      0.01         0.01
  YS02001586YS02001590        0.63      0.63      0.70      0.01         0.01
  YS02001590YS02001593        0.70      0.70      0.72      0.72         0.01
  YS02001593YS02001596        0.71      0.71      0.81      0.01         0.01
  YS02001596YS02001600        0.86      0.86      0.97      0.01         0.01
  YS02001600YS02001601        1.03      1.03      1.29      0.01         0.01
  YS02001601YS02001602        1.18      1.18      1.33      0.96         0.01
  YS02001602YS02001605        1.14      1.14      1.18      2.18         0.01
  YS02001605YS02001607        1.09      1.14      1.09      1.24         1.09
  YS02001607YS02001610        0.68      0.68      0.71      0.01         0.01
  YS02001610YS02001613        0.68      0.68      0.71      0.01         0.01
  YS02001613YS02001616        0.64      0.64      0.68      0.01         0.01
  YS02001616YS02001619        0.63      0.63      0.64      0.01         0.01
  YS02001619YS02001622        0.63      0.63      0.63      0.69         0.60
  YS02001622YS02001625        0.63      0.63      0.80      0.01         0.01
  YS02001625YS02001629        0.58      0.58      0.80      0.01         0.01
  YS02001629YS02163301        0.80      0.80      0.81      0.07         0.12
  YS02001633YS02163601        0.83      0.83      0.86      0.26         0.25
  YS02001641YS02001644        0.74      0.77      0.74      1.39         0.73
  YS02001644YS02001647        0.55      0.55      0.74      0.01         0.01
  YS02001647YS02001649        0.55      0.55      0.67      0.01         0.01
  YS02001649YS02001757        0.67      0.67      0.74      0.05         0.04
  YS02001652YS02001649        0.51      0.51      0.67      0.01         0.01
  YS02001655YS02001652        0.37      0.37      0.49      0.01         0.01
  YS02001658YS02001655        0.22      0.22      0.37      0.01         0.01
  YS02001661YS02001658        0.03      0.03      0.22      0.01         0.01
  YS02001664YS02001661        0.01      0.01      0.07      0.01         0.01
  YS02001745YS02001748        0.01      0.01      0.16      0.01         0.01
  YS02001748YS02001751        0.19      0.19      0.28      0.01         0.01
  YS02001751YS02001754        0.28      0.28      0.43      0.01         0.01
  YS02001754YS02001757        0.46      0.46      0.74      0.01         0.01
  YS02001757CaochengTiaoxuchi        0.74      0.74      1.34      0.28         0.28
  YS02001759YS02001757        0.64      0.64      0.74      0.01         0.01
  YS02001762YS02001759        0.61      0.61      0.64      0.01         0.01
  YS02001765YS02001762        0.58      0.58      0.61      0.01         0.01
  YS02001767YS02001765        0.55      0.55      0.58      0.01         0.01
  YS02001770YS02001767        0.54      0.54      0.55      0.36         0.32
  YS02001774YS02001770        0.52      0.52      0.59      0.01         0.01
  YS02001779YS02001774        0.42      0.42      0.59      0.01         0.01
  YS02001783YS02001784        0.41      0.43      0.41      0.58         0.41
  YS02001784YS02001785        0.31      0.41      0.31      0.80         0.31
  YS02001786YS02001788        0.01      0.31      0.01      0.68         0.01
  YS02001790YS02001791        0.01      0.01      0.01      0.39         0.01
  YS02001793JiankangQianchi        0.01      0.01      7.68      0.01         0.01
  YS02001882YS02001884        0.38      0.38      0.39      0.01         0.01
  YS02001884YS02001887        0.41      0.41      0.42      0.01         0.01
  YS02001887YS02001890        0.43      0.43      0.44      0.09         0.01
  YS02001890YS02001895        0.37      0.37      0.46      0.01         0.01
  YS02001895YS02001898        0.36      0.36      0.37      0.01         0.01
  YS02001898YS02001901        0.37      0.37      0.41      0.01         0.01
  YS02001901YS02001904        0.40      0.40      0.41      0.01         0.01
  YS02001904YS02001907        0.40      0.40      0.67      0.01         0.01
  YS02001907YS02006553        0.80      0.80      0.87      0.01         0.01
  YS02001910YS02001907        0.46      0.46      0.65      0.01         0.01
  YS02001915YS02001910        0.37      0.37      0.46      0.01         0.01
  YS02001918YS02001915        0.30      0.30      0.37      0.01         0.01
  YS02001920YS02001918        0.30      0.30      0.31      0.01         0.01
  YS02001923YS02001920        0.26      0.26      0.31      0.01         0.01
  YS02001926YS02001923        0.06      0.06      0.08      0.01         0.01
  YS02001929YS02001926        0.01      0.01      0.08      0.01         0.01
  YS02006553YS02006556        0.55      0.55      0.67      0.01         0.01
  YS02006556YS02006558        0.60      0.60      0.69      0.01         0.01
  YS02006558YS02006561        0.33      0.53      0.33      0.75         0.33
  YS02006561YS02001783        0.26      0.26      0.43      0.01         0.01
  YS02163301YS02001633        0.81      0.81      0.84      0.01         0.01
  YS02163601YS02164001        0.77      0.77      0.86      0.08         0.01
  YS02164001YS02001641        0.77      0.77      0.77      0.58         0.52
  
  
  ***************
  Pumping Summary
  ***************
  
  ---------------------------------------------------------------------------------------------------------
                                                  Min       Avg       Max     Total     Power    % Time Off
                        Percent   Number of      Flow      Flow      Flow    Volume     Usage    Pump Curve
  Pump                 Utilized   Start-Ups       LPS       LPS       LPS  10^6 ltr     Kw-hr    Low   High
  ---------------------------------------------------------------------------------------------------------
  CC-R1                   19.45          10      0.00    683.00    683.00     3.826     71.05    0.0   23.1
  CC-R2                   17.92          10      0.00    683.00    683.00     3.524     65.48    0.0   25.1
  CC-S1                   24.05          10      0.00    200.00    200.00     1.385      7.91    0.0    0.0
  CC-S2                   21.22          10      0.00    200.00    200.00     1.222      6.93    0.0    0.0
  JK-R1                    6.68          11      0.00   1000.00   1000.00     1.925     22.82    0.0    0.0
  JK-R2                    0.16           1      0.00   1000.00   1000.00     0.047      0.36    0.0    0.0
  JK-S                    17.49           9      0.00    300.00    300.00     1.511     22.74    0.0    0.0
  XR-1                    97.91           2      0.00     95.00     95.00     2.679      9.60    0.0    0.0
  XR-2                    93.94           2      0.00     95.00     95.00     2.570      8.76    0.0    0.0
  XR-3                     0.00           1      0.00     95.00     95.00     0.000      0.00    0.0    0.0
  XR-4                     0.00           1      0.00     95.00     95.00     0.000      0.00    0.0    0.0
  

  Analysis begun on:  Wed Nov  5 16:31:21 2025
  Analysis ended on:  Wed Nov  5 16:31:23 2025
  Total elapsed time: 00:00:02