
  EPA STORM WATER MANAGEMENT MODEL - VERSION 5.2 (Build 5.2.4)
  PYSWMM TOOLKIT API - VERSION v1.0 (2023-11-27)
  ------------------------------------------------------------

  WARNING 04: minimum elevation drop used for Conduit WS02004404WS02004405
  WARNING 03: negative offset ignored for Link YS02001904YS02001907
  
  ****************
  Analysis Options
  ****************
  Flow Units ............... LPS
  Process Models:
    Rainfall/Runoff ........ YES
    RDII ................... NO
    Snowmelt ............... NO
    Groundwater ............ NO
    Flow Routing ........... YES
    Ponding Allowed ........ NO
    Water Quality .......... NO
  Infiltration Method ...... HORTON
  Flow Routing Method ...... DYNWAVE
  Surcharge Method ......... EXTRAN
  Starting Date ............ 08/28/2015 08:00:00
  Ending Date .............. 08/28/2015 16:00:00
  Antecedent Dry Days ...... 8.0
  Report Time Step ......... 00:01:00
  Wet Time Step ............ 00:01:00
  Dry Time Step ............ 00:01:00
  Routing Time Step ........ 30.00 sec
  Variable Time Step ....... YES
  Maximum Trials ........... 8
  Number of Threads ........ 4
  Head Tolerance ........... 0.001500 m
  
  
  **************************        Volume         Depth
  Runoff Quantity Continuity     hectare-m            mm
  **************************     ---------       -------
  Initial LID Storage ......         0.049         1.488
  Total Precipitation ......         1.809        54.525
  Evaporation Loss .........         0.000         0.000
  Infiltration Loss ........         0.073         2.205
  Surface Runoff ...........         1.329        40.065
  Final Storage ............         0.457        13.776
  Continuity Error (%) .....        -0.060
  
  
  **************************        Volume        Volume
  Flow Routing Continuity        hectare-m      10^6 ltr
  **************************     ---------     ---------
  Dry Weather Inflow .......         0.602         6.020
  Wet Weather Inflow .......         1.329        13.291
  Groundwater Inflow .......         0.000         0.000
  RDII Inflow ..............         0.000         0.000
  External Inflow ..........         0.105         1.045
  External Outflow .........         1.691        16.910
  Flooding Loss ............         0.319         3.193
  Evaporation Loss .........         0.000         0.000
  Exfiltration Loss ........         0.000         0.000
  Initial Stored Volume ....         0.303         3.031
  Final Stored Volume ......         0.334         3.344
  Continuity Error (%) .....        -0.256
  
  
  *************************
  Highest Continuity Errors
  *************************
  Node YS02001583 (-8.92%)
  Node YS02001884 (4.98%)
  Node YS02001774 (1.08%)
  
  
  ***************************
  Time-Step Critical Elements
  ***************************
  Link WS02004404WS02004405 (37.24%)
  Link WS02006238WS02006235 (22.28%)
  Link YS02001791YS02001793 (8.85%)
  Link WS02006252WS02006251 (8.14%)
  Link WS02006235WS02006234 (6.20%)
  
  
  ********************************
  Highest Flow Instability Indexes
  ********************************
  Link WS02006113WS02006111 (26)
  Link WS02006111WS02006112 (18)
  Link WS02006238WS02006235 (17)
  Link WS02006229WS02006228 (17)
  Link WS02006252WS02006251 (14)
  
  
  *********************************
  Most Frequent Nonconverging Nodes
  *********************************
  Node CC-1 (11.49%)
  Node CC-2 (11.49%)
  Node JK-1 (11.49%)
  Node JK-2 (11.49%)
  Node WSC (11.49%)
  
  
  *************************
  Routing Time Step Summary
  *************************
  Minimum Time Step           :     0.01 sec
  Average Time Step           :     3.60 sec
  Maximum Time Step           :     7.04 sec
  % of Time in Steady State   :     0.00
  Average Iterations per Step :     3.14
  % of Steps Not Converging   :    11.49
  Time Step Frequencies       :
     30.000 - 13.228 sec      :     0.00 %
     13.228 -  5.833 sec      :    26.96 %
      5.833 -  2.572 sec      :    33.47 %
      2.572 -  1.134 sec      :    26.00 %
      1.134 -  0.500 sec      :    13.57 %
  
  
  ***************************
  Subcatchment Runoff Summary
  ***************************
  
  ------------------------------------------------------------------------------------------------------------------------------
                            Total      Total      Total      Total     Imperv       Perv      Total       Total     Peak  Runoff
                           Precip      Runon       Evap      Infil     Runoff     Runoff     Runoff      Runoff   Runoff   Coeff
  Subcatchment                 mm         mm         mm         mm         mm         mm         mm    10^6 ltr      LPS
  ------------------------------------------------------------------------------------------------------------------------------
  sub60                     54.52       0.00       0.00       1.32      36.11       3.74      39.84        0.52   424.21   0.731
  sub61                     54.52       0.00       0.00       2.02      36.08       5.56      41.64        0.76   616.37   0.764
  sub62                     54.52       0.00       0.00       0.89      38.46       2.54      41.00        1.12   845.01   0.752
  sub63                     54.52       0.00       0.00       3.69      30.90       9.25      40.15        0.91   689.53   0.736
  sub64                     54.52       0.00       0.00       1.77      35.18       4.60      39.78        0.96   679.80   0.730
  sub65                     54.52       0.00       0.00       1.63      37.97       4.20      42.17        1.16   786.81   0.773
  sub66                     54.52       0.00       0.00       4.32      29.87       8.21      38.08        1.78   992.29   0.698
  sub67                     54.52       0.00       0.00       0.89      39.43       2.63      42.06        0.78   669.72   0.771
  sub68                     54.52       0.00       0.00       1.55      34.82       4.27      39.09        1.08   842.37   0.717
  sub69                     54.52       0.00       0.00       1.39      36.65       5.09      41.74        1.55  1021.46   0.766
  sub70                     54.52       0.00       0.00       4.73      29.36      10.44      39.80        1.15   569.03   0.730
  sub71                     54.52       0.00       0.00       0.82      34.93       2.29      37.23        0.97   690.31   0.683
  sub72                     54.52       0.00       0.00       0.79      37.73       2.13      39.86        0.55   349.87   0.731
  

  ***********************
  LID Performance Summary
  ***********************

  --------------------------------------------------------------------------------------------------------------------
                                         Total      Evap     Infil   Surface    Drain    Initial     Final  Continuity
                                        Inflow      Loss      Loss   Outflow   Outflow   Storage   Storage       Error
  Subcatchment      LID Control             mm        mm        mm        mm        mm        mm        mm           %
  --------------------------------------------------------------------------------------------------------------------
  sub60             GreenRoof            54.52      0.00      0.00      0.00      0.00      7.05     61.67       -0.16
  sub61             GreenRoof            54.52      0.00      0.00      0.00      0.00      7.05     61.67       -0.16
  sub62             GreenRoof            54.52      0.00      0.00      0.00      0.00      7.05     61.67       -0.16
  sub63             GreenRoof            54.52      0.00      0.00      0.00      0.00      7.05     61.67       -0.16
  sub64             GreenRoof            54.52      0.00      0.00      0.00      0.00      7.05     61.67       -0.16
  sub65             GreenRoof            54.52      0.00      0.00      0.00      0.00      7.05     61.67       -0.16
  sub66             GreenRoof            54.52      0.00      0.00      0.00      0.00      7.05     61.67       -0.16
  sub67             GreenRoof            54.52      0.00      0.00      0.00      0.00      7.05     61.67       -0.16
  sub68             GreenRoof            54.52      0.00      0.00      0.00      0.00      7.05     61.67       -0.16
  sub69             GreenRoof            54.52      0.00      0.00      0.00      0.00      7.05     61.67       -0.16
  sub70             GreenRoof            54.52      0.00      0.00      0.00      0.00      7.05     61.67       -0.16
  sub71             GreenRoof            54.52      0.00      0.00      0.00      0.00      7.05     61.67       -0.16
  sub72             GreenRoof            54.52      0.00      0.00      0.00      0.00      7.05     61.67       -0.16
  
  ******************
  Node Depth Summary
  ******************
  
  ---------------------------------------------------------------------------------
                                 Average  Maximum  Maximum  Time of Max    Reported
                                   Depth    Depth      HGL   Occurrence   Max Depth
  Node                 Type       Meters   Meters   Meters  days hr:min      Meters
  ---------------------------------------------------------------------------------
  WS02001211           JUNCTION     0.60     0.64     5.48     0  02:52        0.64
  WS02001212           JUNCTION     0.33     0.38     5.45     0  02:52        0.38
  WS02001213           JUNCTION     0.52     0.65     5.41     0  02:51        0.65
  WS02003059           JUNCTION     0.59     0.72     5.40     0  02:50        0.72
  WS02003060           JUNCTION     0.29     0.45     5.38     0  02:50        0.45
  WS02003066           JUNCTION     0.15     0.30     5.85     0  02:29        0.30
  WS02003067           JUNCTION     0.42     0.70     6.02     0  02:29        0.70
  WS02003069           JUNCTION     0.33     0.51     5.10     0  02:51        0.51
  WS02003072           JUNCTION     0.39     0.58     4.95     0  02:51        0.58
  WS02003073           JUNCTION     0.23     0.35     4.41     0  02:52        0.35
  WS02004138           JUNCTION     0.13     0.14     7.39     0  00:29        0.14
  WS02004139           JUNCTION     0.54     0.58     5.49     0  02:53        0.58
  WS02004401           JUNCTION     0.50     0.85     6.85     0  02:47        0.85
  WS02004402           JUNCTION     0.54     0.88     6.84     0  02:33        0.88
  WS02004403           JUNCTION     0.56     0.89     6.82     0  02:33        0.89
  WS02004404           JUNCTION     0.63     0.96     6.81     0  02:25        0.96
  WS02004405           JUNCTION     0.63     0.96     6.81     0  02:25        0.96
  WS02004406           JUNCTION     0.65     0.96     6.79     0  02:33        0.96
  WS02004407           JUNCTION     0.13     0.30     6.61     0  02:33        0.30
  WS02004409           JUNCTION     0.29     0.67     6.44     0  02:27        0.67
  WS02004410           JUNCTION     0.32     0.68     6.40     0  02:27        0.68
  WS02004411           JUNCTION     0.35     0.69     6.37     0  02:28        0.69
  WS02004412           JUNCTION     0.37     0.70     6.34     0  02:28        0.70
  WS02004413           JUNCTION     0.53     0.86     6.33     0  02:28        0.86
  WS02006109           JUNCTION     0.55     1.05     7.67     0  03:06        1.04
  WS02006110           JUNCTION     0.56     1.04     7.62     0  03:06        0.97
  WS02006111           JUNCTION     0.13     0.29     6.99     0  02:32        0.29
  WS02006112           JUNCTION     0.65     1.07     6.96     0  02:18        1.05
  WS02006113           JUNCTION     0.20     0.46     7.35     0  02:35        0.46
  WS02006115           JUNCTION     0.39     0.75     6.89     0  02:32        0.75
  WS02006116           JUNCTION     0.47     0.83     6.87     0  02:32        0.83
  WS02006228           JUNCTION     0.54     1.08     7.73     0  03:06        1.07
  WS02006229           JUNCTION     0.51     1.09     7.78     0  03:06        1.06
  WS02006230           JUNCTION     0.51     1.23     7.98     0  03:06        1.13
  WS02006231           JUNCTION     0.33     0.96     8.08     0  03:06        0.87
  WS02006232           JUNCTION     0.45     1.13     8.17     0  03:06        1.07
  WS02006234           JUNCTION     0.38     1.14     8.30     0  03:06        1.12
  WS02006235           JUNCTION     0.42     1.23     8.40     0  03:06        1.19
  WS02006238           JUNCTION     0.44     1.27     8.41     0  03:06        1.22
  WS02006239           JUNCTION     0.40     1.24     8.45     0  03:06        1.21
  WS02006240           JUNCTION     0.38     1.20     8.50     0  03:06        1.19
  WS02006242           JUNCTION     0.43     1.27     8.54     0  03:06        1.25
  WS02006243           JUNCTION     0.36     1.17     8.59     0  03:06        1.15
  WS02006245           JUNCTION     0.36     1.14     8.63     0  03:06        1.12
  WS02006247           JUNCTION     0.37     1.16     8.66     0  02:13        1.16
  WS02006248           JUNCTION     0.35     1.09     8.68     0  03:06        1.09
  WS02006249           JUNCTION     0.37     1.09     8.69     0  02:02        1.09
  WS02006251           JUNCTION     0.37     1.37     9.04     0  02:02        1.12
  WS02006252           JUNCTION     0.25     1.50     9.74     0  00:00        0.67
  WS02006256           JUNCTION     1.04     2.35     9.28     0  00:00        2.35
  WSF200               JUNCTION     0.13     0.31     5.54     0  02:29        0.31
  YS02001580           JUNCTION     0.10     1.05     9.59     0  01:57        0.77
  YS02001583           JUNCTION     0.13     1.14     9.64     0  01:57        0.82
  YS02001586           JUNCTION     0.22     1.13     9.30     0  01:56        1.13
  YS02001590           JUNCTION     0.32     1.40     9.26     0  01:55        1.37
  YS02001593           JUNCTION     0.26     1.46     9.32     0  01:55        1.29
  YS02001596           JUNCTION     0.36     1.73     9.15     0  01:56        1.65
  YS02001600           JUNCTION     0.44     1.87     9.00     0  01:56        1.87
  YS02001601           JUNCTION     0.63     2.06     8.90     0  01:55        2.06
  YS02001602           JUNCTION     0.53     1.87     8.77     0  01:57        1.87
  YS02001605           JUNCTION     0.49     1.78     8.68     0  01:57        1.77
  YS02001607           JUNCTION     0.47     1.67     8.52     0  01:57        1.64
  YS02001610           JUNCTION     0.51     1.68     8.48     0  01:57        1.68
  YS02001613           JUNCTION     0.47     1.69     8.53     0  01:57        1.65
  YS02001616           JUNCTION     0.40     1.61     8.52     0  01:57        1.60
  YS02001619           JUNCTION     0.38     1.61     8.54     0  01:57        1.61
  YS02001622           JUNCTION     0.37     1.62     8.52     0  01:57        1.58
  YS02001625           JUNCTION     0.62     1.78     8.38     0  01:57        1.78
  YS02001629           JUNCTION     0.50     1.85     8.40     0  01:57        1.85
  YS02001633           JUNCTION     0.57     2.08     8.53     0  01:59        1.99
  YS02001641           JUNCTION     0.54     2.02     8.46     0  01:59        1.95
  YS02001644           JUNCTION     0.53     1.92     8.35     0  01:59        1.92
  YS02001647           JUNCTION     0.32     1.90     8.51     0  01:59        1.79
  YS02001649           JUNCTION     0.37     2.05     8.44     0  02:00        2.05
  YS02001652           JUNCTION     0.26     2.04     8.64     0  02:00        1.82
  YS02001655           JUNCTION     0.19     2.05     8.90     0  02:00        1.62
  YS02001658           JUNCTION     0.13     2.09     9.23     0  02:00        1.40
  YS02001661           JUNCTION     0.16     1.87     9.28     0  02:00        1.18
  YS02001664           JUNCTION     0.06     0.85     8.78     0  02:01        0.47
  YS02001745           JUNCTION     0.07     1.96     9.47     0  02:00        1.02
  YS02001748           JUNCTION     0.12     2.24     9.31     0  02:00        1.32
  YS02001751           JUNCTION     0.16     2.20     9.08     0  02:00        1.45
  YS02001754           JUNCTION     0.22     2.20     8.81     0  02:00        1.68
  YS02001757           JUNCTION     0.38     2.21     8.47     0  02:00        2.02
  YS02001759           JUNCTION     0.32     2.20     8.56     0  02:00        2.01
  YS02001762           JUNCTION     0.31     2.15     8.55     0  02:00        1.99
  YS02001765           JUNCTION     0.29     2.10     8.55     0  02:00        1.96
  YS02001767           JUNCTION     0.29     2.03     8.52     0  01:59        1.93
  YS02001770           JUNCTION     0.30     1.95     8.44     0  01:59        1.95
  YS02001774           JUNCTION     0.36     2.01     8.43     0  02:00        1.99
  YS02001779           JUNCTION     0.20     1.68     8.37     0  01:59        1.68
  YS02001783           JUNCTION     0.26     1.41     7.56     0  01:59        1.23
  YS02001784           JUNCTION     0.28     1.27     7.34     0  01:59        1.11
  YS02001786           JUNCTION     0.23     0.98     7.01     0  01:59        0.87
  YS02001788           JUNCTION     0.17     0.62     6.60     0  02:01        0.62
  YS02001790           JUNCTION     0.20     0.72     6.37     0  02:01        0.71
  YS02001791           JUNCTION     0.13     0.44     5.91     0  02:01        0.42
  YS02001793           JUNCTION     0.07     0.30     5.14     0  02:03        0.29
  YS02001882           JUNCTION     0.33     1.83     8.55     0  01:58        1.63
  YS02001884           JUNCTION     0.41     1.93     8.55     0  01:58        1.74
  YS02001887           JUNCTION     0.49     2.00     8.54     0  01:58        1.81
  YS02001890           JUNCTION     0.52     1.81     8.32     0  01:58        1.81
  YS02001895           JUNCTION     0.30     1.75     8.50     0  01:58        1.56
  YS02001898           JUNCTION     0.30     1.77     8.51     0  01:58        1.56
  YS02001901           JUNCTION     0.41     1.87     8.48     0  01:58        1.67
  YS02001904           JUNCTION     0.39     1.85     8.48     0  01:58        1.63
  YS02001907           JUNCTION     0.70     1.96     8.25     0  01:58        1.96
  YS02001910           JUNCTION     0.51     2.10     8.61     0  01:58        1.85
  YS02001915           JUNCTION     0.32     2.00     8.72     0  01:58        1.72
  YS02001918           JUNCTION     0.17     1.81     8.88     0  02:00        1.41
  YS02001920           JUNCTION     0.25     2.14     9.15     0  02:00        1.49
  YS02001923           JUNCTION     0.13     2.03     9.29     0  02:00        1.26
  YS02001926           JUNCTION     0.16     1.90     9.35     0  02:00        1.08
  YS02001929           JUNCTION     0.09     1.78     9.47     0  02:00        0.85
  YS02006553           JUNCTION     0.71     2.02     8.30     0  01:59        1.97
  YS02006556           JUNCTION     0.68     2.06     8.37     0  01:59        1.95
  YS02006558           JUNCTION     0.72     2.11     8.38     0  01:59        1.99
  YS02006561           JUNCTION     0.16     1.22     7.88     0  01:59        0.90
  YS02163301           JUNCTION     0.52     1.97     8.48     0  01:59        1.90
  YS02163601           JUNCTION     0.60     2.08     8.48     0  01:59        2.01
  YS02164001           JUNCTION     0.53     2.06     8.52     0  01:59        1.93
  CC-1                 OUTFALL      0.00     0.00     0.00     0  00:00        0.00
  CC-2                 OUTFALL      0.00     0.00     0.00     0  00:00        0.00
  JK-1                 OUTFALL      0.00     0.00     0.00     0  00:00        0.00
  JK-2                 OUTFALL      0.00     0.00     0.00     0  00:00        0.00
  WSC                  OUTFALL      0.23     0.35     1.02     0  02:52        0.35
  CC-storage           STORAGE      0.79     1.55     7.05     0  02:22        1.55
  JK-storage           STORAGE      2.93     4.24     5.04     0  02:05        4.22
  XR-storage           STORAGE      7.85     9.26     7.26     0  08:00        9.26
  
  
  *******************
  Node Inflow Summary
  *******************
  
  -------------------------------------------------------------------------------------------------
                                  Maximum  Maximum                  Lateral       Total        Flow
                                  Lateral    Total  Time of Max      Inflow      Inflow     Balance
                                   Inflow   Inflow   Occurrence      Volume      Volume       Error
  Node                 Type           LPS      LPS  days hr:min    10^6 ltr    10^6 ltr     Percent
  -------------------------------------------------------------------------------------------------
  WS02001211           JUNCTION      7.35   200.52     0  02:56       0.212        5.44       0.611
  WS02001212           JUNCTION      0.00   202.67     0  02:56           0        5.41       0.290
  WS02001213           JUNCTION      0.00   204.38     0  02:57           0        5.39       0.331
  WS02003059           JUNCTION      0.00   207.85     0  03:27           0        5.38       0.592
  WS02003060           JUNCTION     16.53   750.88     0  02:50       0.476         8.8       0.160
  WS02003066           JUNCTION      0.00   536.83     0  02:29           0        2.97       0.044
  WS02003067           JUNCTION      0.00   536.80     0  02:28           0        2.98       0.141
  WS02003069           JUNCTION      0.32   751.07     0  02:50     0.00922        8.78       0.169
  WS02003072           JUNCTION      0.00   750.96     0  02:51           0        8.77       0.230
  WS02003073           JUNCTION      1.82   752.71     0  02:51      0.0524         8.8       0.237
  WS02004138           JUNCTION      0.00   380.00     0  00:00           0        5.25       0.053
  WS02004139           JUNCTION      0.32   191.16     0  00:29     0.00924        5.26       0.509
  WS02004401           JUNCTION      0.00   538.43     0  02:32           0        3.09       0.368
  WS02004402           JUNCTION      0.00   538.18     0  02:32           0        3.08       0.370
  WS02004403           JUNCTION      0.00   537.45     0  02:33           0        3.06       0.359
  WS02004404           JUNCTION      0.16   537.76     0  02:33     0.00467        3.06       0.295
  WS02004405           JUNCTION      0.04   537.84     0  02:33      0.0011        3.05       0.441
  WS02004406           JUNCTION      0.00   537.70     0  02:33           0        3.04       0.736
  WS02004407           JUNCTION      0.00   537.40     0  02:33           0        3.01       0.062
  WS02004409           JUNCTION      0.00   537.13     0  02:33           0        3.01       0.113
  WS02004410           JUNCTION      0.00   537.01     0  02:27           0        3.01       0.158
  WS02004411           JUNCTION      0.00   536.99     0  02:27           0           3       0.193
  WS02004412           JUNCTION      0.00   536.88     0  02:28           0           3       0.257
  WS02004413           JUNCTION      0.00   536.97     0  02:28           0        2.99       0.456
  WS02006109           JUNCTION      1.23   547.71     0  03:07      0.0354        3.14       0.346
  WS02006110           JUNCTION      0.00   548.22     0  03:07           0        3.13       0.288
  WS02006111           JUNCTION      0.00   560.24     0  02:28           0        3.12       0.051
  WS02006112           JUNCTION      0.00   543.27     0  02:32           0        3.12       0.619
  WS02006113           JUNCTION      0.00   560.21     0  03:07           0        3.12       0.099
  WS02006115           JUNCTION      0.00   551.82     0  02:19           0         3.1       0.257
  WS02006116           JUNCTION      0.00   539.87     0  02:32           0        3.09       0.136
  WS02006228           JUNCTION      0.00   546.10     0  03:07           0        3.11       0.173
  WS02006229           JUNCTION      0.00   545.78     0  03:07           0        3.12       0.211
  WS02006230           JUNCTION     10.28   582.76     0  03:06       0.296        3.13       0.236
  WS02006231           JUNCTION      0.00   571.98     0  03:06           0        2.83      -0.074
  WS02006232           JUNCTION      0.00   571.36     0  03:06           0        2.84       0.543
  WS02006234           JUNCTION      0.00   566.92     0  03:06           0        2.83      -0.297
  WS02006235           JUNCTION      0.00   559.13     0  03:06           0        2.92       0.440
  WS02006238           JUNCTION      0.00   420.62     0  02:48           0        2.05      -0.090
  WS02006239           JUNCTION      0.00   420.46     0  02:48           0        2.01       0.001
  WS02006240           JUNCTION      0.00   418.23     0  02:48           0        1.97      -0.056
  WS02006242           JUNCTION      0.00   418.81     0  02:48           0        1.94      -0.125
  WS02006243           JUNCTION      0.00   418.51     0  02:48           0        1.92      -0.113
  WS02006245           JUNCTION      0.00   417.40     0  02:48           0        1.92       0.559
  WS02006247           JUNCTION      0.00   416.69     0  02:48           0        1.92      -0.007
  WS02006248           JUNCTION      0.00   416.13     0  02:48           0        1.92      -0.182
  WS02006249           JUNCTION      0.00   458.97     0  00:00           0        2.14       0.645
  WS02006251           JUNCTION      0.08   406.68     0  02:02     0.00222        2.14       0.052
  WS02006252           JUNCTION      0.00   400.00     0  00:00           0        2.13      -0.470
  WS02006256           JUNCTION      0.00   300.00     0  00:00           0         1.3      -0.500
  WSF200               JUNCTION      0.00   536.85     0  02:29           0        2.97       0.017
  YS02001580           JUNCTION      0.00   141.26     0  01:57           0      0.0045       2.506
  YS02001583           JUNCTION      0.00   236.13     0  01:57           0      0.0151      -8.190
  YS02001586           JUNCTION    569.03   569.15     0  02:04        1.15        1.16       0.131
  YS02001590           JUNCTION      0.00   317.89     0  02:16           0       0.991      -0.044
  YS02001593           JUNCTION      0.00   318.01     0  02:16           0       0.991      -0.000
  YS02001596           JUNCTION      0.00   318.24     0  02:14           0       0.991      -0.017
  YS02001600           JUNCTION      0.00   318.00     0  02:07           0       0.991      -0.003
  YS02001601           JUNCTION   1021.46  1338.95     0  02:02        1.55        2.54       0.011
  YS02001602           JUNCTION      0.00   550.50     0  01:57           0        1.75       0.012
  YS02001605           JUNCTION      0.00   550.24     0  01:57           0        1.68       0.010
  YS02001607           JUNCTION      0.00   550.15     0  01:56           0        1.68       0.100
  YS02001610           JUNCTION      0.00   545.34     0  01:57           0        1.71       0.111
  YS02001613           JUNCTION      0.00   551.84     0  01:57           0        1.44       0.096
  YS02001616           JUNCTION      0.00   565.03     0  01:57           0        1.44       0.025
  YS02001619           JUNCTION    992.29   992.29     0  02:03        1.78        3.18      -0.005
  YS02001622           JUNCTION      0.00   995.38     0  01:57           0        3.14      -0.012
  YS02001625           JUNCTION      0.00  1077.84     0  02:04           0        3.18       0.268
  YS02001629           JUNCTION      0.00   956.84     0  01:57           0        2.67       0.013
  YS02001633           JUNCTION    787.01  1442.46     0  01:59        1.17        3.76       0.085
  YS02001641           JUNCTION      0.00  1444.52     0  01:59           0        3.69       0.071
  YS02001644           JUNCTION    679.83  1901.73     0  01:59       0.957        4.64       0.065
  YS02001647           JUNCTION      0.00  1902.30     0  01:59           0        4.53       0.013
  YS02001649           JUNCTION      0.00  2119.22     0  01:59           0        5.45       0.005
  YS02001652           JUNCTION      0.00   908.94     0  02:02           0       0.918      -0.111
  YS02001655           JUNCTION      0.15   908.11     0  02:02     0.00443       0.917      -0.021
  YS02001658           JUNCTION      0.00   908.31     0  02:02           0       0.912      -0.112
  YS02001661           JUNCTION      0.00   888.79     0  02:01           0       0.912      -0.020
  YS02001664           JUNCTION    689.53   689.53     0  02:02       0.912       0.912      -0.022
  YS02001745           JUNCTION    424.21   717.97     0  02:00       0.524       0.526       0.271
  YS02001748           JUNCTION      0.04   648.14     0  02:00      0.0013       0.531      -0.654
  YS02001751           JUNCTION      0.01   601.86     0  02:01    0.000317       0.542       0.153
  YS02001754           JUNCTION      0.26   602.13     0  02:01     0.00749       0.559      -0.224
  YS02001757           JUNCTION      0.00  3339.29     0  02:01           0        7.87       0.029
  YS02001759           JUNCTION    616.41  1401.54     0  02:00       0.765        1.88      -0.014
  YS02001762           JUNCTION      0.00   803.91     0  02:00           0        1.11      -0.019
  YS02001765           JUNCTION      0.00   805.03     0  02:00           0        1.11       0.028
  YS02001767           JUNCTION      0.54   805.80     0  02:00      0.0154        1.11      -0.041
  YS02001770           JUNCTION    845.17   845.17     0  02:02        1.13        1.17      -0.071
  YS02001774           JUNCTION      0.00   562.01     0  01:59           0      0.0907       1.095
  YS02001779           JUNCTION      0.01   573.34     0  01:59    0.000144      0.0488      -1.287
  YS02001783           JUNCTION      0.00  1161.58     0  02:00           0         2.9       0.007
  YS02001784           JUNCTION      1.06  1162.71     0  02:01      0.0305        2.93       0.016
  YS02001786           JUNCTION      0.06  1162.64     0  02:01     0.00162        2.93       0.023
  YS02001788           JUNCTION      0.07  1162.88     0  02:00     0.00204        2.93       0.010
  YS02001790           JUNCTION      0.15  1170.11     0  02:03     0.00446        2.94       0.020
  YS02001791           JUNCTION      0.00  1278.97     0  02:01           0        2.94      -0.018
  YS02001793           JUNCTION      0.00  1243.73     0  02:03           0        2.94       0.007
  YS02001882           JUNCTION      0.00    94.91     0  01:58           0      0.0126       4.169
  YS02001884           JUNCTION      0.00   122.08     0  01:58           0      0.0484       5.236
  YS02001887           JUNCTION    670.17   670.96     0  02:01       0.795       0.829       0.531
  YS02001890           JUNCTION      0.00   670.38     0  02:01           0       0.788       0.641
  YS02001895           JUNCTION      0.00   550.72     0  01:59           0       0.757       0.192
  YS02001898           JUNCTION      0.00   549.52     0  01:59           0       0.755       0.043
  YS02001901           JUNCTION      0.00   547.64     0  01:59           0       0.758       0.417
  YS02001904           JUNCTION      0.00   544.71     0  01:59           0       0.762       0.367
  YS02001907           JUNCTION      0.00  1650.11     0  02:01           0        2.36       0.751
  YS02001910           JUNCTION      0.00  1129.62     0  02:01           0         1.6       0.448
  YS02001915           JUNCTION    690.33  1129.30     0  02:01       0.974        1.65       0.076
  YS02001918           JUNCTION      0.00   563.38     0  01:59           0       0.709       0.037
  YS02001920           JUNCTION      2.87   534.42     0  01:59      0.0827       0.688       0.099
  YS02001923           JUNCTION      0.04   621.44     0  01:59     0.00109       0.589      -0.141
  YS02001926           JUNCTION      0.05   982.99     0  01:59      0.0015       0.569      -0.172
  YS02001929           JUNCTION    349.87   871.36     0  02:00       0.548       0.554      -0.151
  YS02006553           JUNCTION      0.00   796.66     0  02:13           0        1.85       0.630
  YS02006556           JUNCTION      0.00   796.45     0  02:13           0        1.85       0.428
  YS02006558           JUNCTION    843.25  1179.01     0  01:59         1.1        2.93       0.119
  YS02006561           JUNCTION      0.00  1174.16     0  01:59           0         2.9      -0.001
  YS02163301           JUNCTION      0.00   930.39     0  01:58           0        2.65       0.049
  YS02163601           JUNCTION      0.11  1442.28     0  01:59     0.00317        3.69       0.128
  YS02164001           JUNCTION      0.00  1442.20     0  01:58           0        3.69       0.059
  CC-1                 OUTFALL       0.00   683.00     0  00:00           0        3.35       0.000
  CC-2                 OUTFALL       0.00   683.00     0  00:00           0        3.15       0.000
  JK-1                 OUTFALL       0.00  1000.00     0  00:00           0        1.58       0.000
  JK-2                 OUTFALL       0.00  1000.00     0  00:00           0      0.0484       0.000
  WSC                  OUTFALL       0.00   752.66     0  02:52           0        8.78       0.000
  CC-storage           STORAGE       0.00  3340.24     0  02:01           0        10.1      -0.263
  JK-storage           STORAGE       0.00  1228.09     0  02:01           0        3.09       0.055
  XR-storage           STORAGE     200.00   200.00     0  00:00        5.76        6.36       0.001
  
  
  **********************
  Node Surcharge Summary
  **********************
  
  Surcharging occurs when water rises above the top of the highest conduit.
  ---------------------------------------------------------------------
                                               Max. Height   Min. Depth
                                   Hours       Above Crown    Below Rim
  Node                 Type      Surcharged         Meters       Meters
  ---------------------------------------------------------------------
  WS02006109           JUNCTION        1.26          0.232        1.588
  WS02006110           JUNCTION        0.78          0.129        1.721
  WS02006112           JUNCTION        0.71          0.074        1.606
  WS02006228           JUNCTION        1.26          0.249        1.951
  WS02006229           JUNCTION        1.26          0.289        2.161
  WS02006230           JUNCTION        0.79          0.152        1.418
  WS02006231           JUNCTION        0.81          0.245        1.285
  WS02006232           JUNCTION        1.28          0.435        1.045
  WS02006234           JUNCTION        0.93          0.419        0.821
  WS02006235           JUNCTION        1.25          0.523        0.767
  WS02006238           JUNCTION        1.27          0.548        0.882
  WS02006239           JUNCTION        1.26          0.504        0.786
  WS02006240           JUNCTION        1.26          0.493        0.897
  WS02006242           JUNCTION        1.27          0.545        0.275
  WS02006243           JUNCTION        1.25          0.460        0.310
  WS02006245           JUNCTION        1.25          0.432        0.418
  WS02006247           JUNCTION        1.25          0.446        0.314
  WS02006248           JUNCTION        1.24          0.374        0.006
  WS02006249           JUNCTION        1.24          0.390        0.000
  WS02006251           JUNCTION        0.83          0.343        0.837
  WS02006252           JUNCTION        1.42          1.100        0.000
  WS02006256           JUNCTION        4.06          2.050        0.000
  YS02001580           JUNCTION        0.40          0.450        0.000
  YS02001583           JUNCTION        0.40          0.500        0.000
  YS02001586           JUNCTION        0.51          0.510        0.000
  YS02001590           JUNCTION        0.56          0.750        0.000
  YS02001593           JUNCTION        0.57          0.840        0.000
  YS02001596           JUNCTION        0.65          1.005        0.065
  YS02001600           JUNCTION        0.76          1.190        0.000
  YS02001601           JUNCTION        1.07          1.440        0.000
  YS02001602           JUNCTION        0.96          1.270        0.000
  YS02001605           JUNCTION        0.91          1.180        0.000
  YS02001607           JUNCTION        0.54          0.671        0.009
  YS02001610           JUNCTION        0.55          0.680        0.000
  YS02001613           JUNCTION        0.53          0.693        0.007
  YS02001616           JUNCTION        0.50          0.610        0.000
  YS02001619           JUNCTION        0.48          0.610        0.000
  YS02001622           JUNCTION        0.48          0.620        0.000
  YS02001625           JUNCTION        0.63          0.780        0.000
  YS02001629           JUNCTION        0.45          0.470        0.000
  YS02001633           JUNCTION        0.65          1.060        0.000
  YS02001641           JUNCTION        0.59          1.018        0.082
  YS02001644           JUNCTION        0.57          0.920        0.000
  YS02001647           JUNCTION        0.40          0.900        0.000
  YS02001649           JUNCTION        0.49          1.050        0.000
  YS02001652           JUNCTION        0.34          1.012        0.118
  YS02001655           JUNCTION        0.23          1.047        0.153
  YS02001658           JUNCTION        0.11          1.092        0.208
  YS02001661           JUNCTION        0.01          0.804        0.586
  YS02001745           JUNCTION        0.01          0.956        0.394
  YS02001748           JUNCTION        0.04          1.156        0.034
  YS02001751           JUNCTION        0.15          1.200        0.000
  YS02001754           JUNCTION        0.27          1.150        0.000
  YS02001757           JUNCTION        0.54          1.210        0.000
  YS02001759           JUNCTION        0.46          1.196        0.014
  YS02001762           JUNCTION        0.44          1.150        0.000
  YS02001765           JUNCTION        0.39          1.100        0.000
  YS02001767           JUNCTION        0.37          1.030        0.000
  YS02001770           JUNCTION        0.35          0.920        0.000
  YS02001774           JUNCTION        0.42          1.007        0.043
  YS02001779           JUNCTION        0.27          0.680        0.000
  YS02001783           JUNCTION        0.36          0.615        0.985
  YS02001784           JUNCTION        0.34          0.472        1.018
  YS02001786           JUNCTION        0.26          0.181        1.249
  YS02001882           JUNCTION        0.31          0.830        0.000
  YS02001884           JUNCTION        0.32          0.870        0.000
  YS02001887           JUNCTION        0.35          0.950        0.000
  YS02001890           JUNCTION        0.36          0.760        0.000
  YS02001895           JUNCTION        0.31          0.750        0.000
  YS02001898           JUNCTION        0.30          0.740        0.000
  YS02001901           JUNCTION        0.34          0.870        0.000
  YS02001904           JUNCTION        0.33          0.850        0.000
  YS02001907           JUNCTION        0.52          0.950        0.000
  YS02001910           JUNCTION        0.38          1.100        0.000
  YS02001915           JUNCTION        0.31          1.000        0.000
  YS02001918           JUNCTION        0.24          0.810        0.000
  YS02001920           JUNCTION        0.25          1.140        0.000
  YS02001923           JUNCTION        0.01          0.820        0.000
  YS02001926           JUNCTION        0.02          0.900        0.000
  YS02001929           JUNCTION        0.01          0.780        0.000
  YS02006553           JUNCTION        0.52          1.017        0.173
  YS02006556           JUNCTION        0.45          1.017        0.333
  YS02006558           JUNCTION        0.44          1.011        0.389
  YS02006561           JUNCTION        0.21          0.424        0.726
  YS02163301           JUNCTION        0.63          0.965        0.065
  YS02163601           JUNCTION        0.67          1.080        0.000
  YS02164001           JUNCTION        0.60          1.061        0.039
  
  
  *********************
  Node Flooding Summary
  *********************
  
  Flooding refers to all water that overflows a node, whether it ponds or not.
  --------------------------------------------------------------------------
                                                             Total   Maximum
                                 Maximum   Time of Max       Flood    Ponded
                        Hours       Rate    Occurrence      Volume     Depth
  Node                 Flooded       LPS   days hr:min    10^6 ltr    Meters
  --------------------------------------------------------------------------
  WS02006249              0.82     98.77      0  02:02       0.207     0.000
  WS02006252              0.01    245.63      0  00:00       0.000     0.000
  WS02006256              1.20    293.19      0  00:00       0.378     0.000
  YS02001580              0.01     96.58      0  01:57       0.000     0.000
  YS02001583              0.01    201.29      0  01:57       0.000     0.000
  YS02001586              0.32    251.51      0  02:04       0.158     0.000
  YS02001590              0.01     66.99      0  01:55       0.000     0.000
  YS02001593              0.01     20.83      0  01:55       0.000     0.000
  YS02001600              0.01      2.85      0  01:56       0.000     0.000
  YS02001601              0.45    941.10      0  02:02       0.785     0.000
  YS02001602              0.37     62.16      0  02:13       0.074     0.000
  YS02001605              0.01      3.33      0  01:57       0.000     0.000
  YS02001610              0.32    469.55      0  02:04       0.311     0.000
  YS02001616              0.01     22.01      0  01:57       0.000     0.000
  YS02001619              0.01     12.06      0  01:57       0.000     0.000
  YS02001622              0.01    303.58      0  01:57       0.001     0.000
  YS02001625              0.29   1077.13      0  02:04       0.569     0.000
  YS02001629              0.07    302.52      0  01:57       0.033     0.000
  YS02001633              0.01      2.11      0  01:59       0.000     0.000
  YS02001644              0.09    632.01      0  02:01       0.104     0.000
  YS02001647              0.01     87.42      0  01:59       0.000     0.000
  YS02001649              0.01    107.12      0  02:01       0.001     0.000
  YS02001751              0.01     62.26      0  02:00       0.000     0.000
  YS02001754              0.01     43.20      0  02:00       0.000     0.000
  YS02001757              0.01     28.39      0  02:00       0.000     0.000
  YS02001762              0.01     19.62      0  02:00       0.000     0.000
  YS02001765              0.01     16.94      0  02:00       0.000     0.000
  YS02001767              0.01    143.41      0  01:59       0.000     0.000
  YS02001770              0.01     97.53      0  01:59       0.001     0.000
  YS02001779              0.07    504.30      0  01:59       0.032     0.000
  YS02001882              0.01     75.40      0  01:58       0.000     0.000
  YS02001884              0.01     34.79      0  01:58       0.000     0.000
  YS02001887              0.01     20.48      0  01:58       0.000     0.000
  YS02001890              0.08    148.61      0  02:01       0.026     0.000
  YS02001895              0.01     64.06      0  01:58       0.000     0.000
  YS02001898              0.01    179.84      0  01:58       0.000     0.000
  YS02001901              0.01      5.98      0  01:58       0.000     0.000
  YS02001904              0.01     74.79      0  01:58       0.000     0.000
  YS02001907              0.20   1326.67      0  02:01       0.500     0.000
  YS02001910              0.01     20.80      0  01:58       0.000     0.000
  YS02001915              0.01    198.47      0  01:58       0.000     0.000
  YS02001918              0.01    191.36      0  02:00       0.003     0.000
  YS02001920              0.01     48.36      0  02:00       0.000     0.000
  YS02001923              0.01    103.54      0  02:00       0.000     0.000
  YS02001926              0.01    601.28      0  02:00       0.004     0.000
  YS02001929              0.01    540.79      0  02:00       0.002     0.000
  YS02163601              0.01     16.42      0  01:59       0.000     0.000
  
  
  **********************
  Storage Volume Summary
  **********************
  
  ------------------------------------------------------------------------------------------------
                         Average    Avg   Evap  Exfil     Maximum    Max    Time of Max    Maximum
                          Volume   Pcnt   Pcnt   Pcnt      Volume   Pcnt     Occurrence    Outflow
  Storage Unit           1000 m³   Full   Loss   Loss     1000 m³   Full    days hr:min        LPS
  ------------------------------------------------------------------------------------------------
  CC-storage               2.194   34.2    0.0    0.0       4.312   67.3       0  02:22    1783.53
  JK-storage               0.147   50.5    0.0    0.0       0.213   73.1       0  02:05    2300.00
  XR-storage               0.942   65.4    0.0    0.0       1.111   77.2       0  08:00     380.00
  
  
  ***********************
  Outfall Loading Summary
  ***********************
  
  -----------------------------------------------------------
                         Flow       Avg       Max       Total
                         Freq      Flow      Flow      Volume
  Outfall Node           Pcnt       LPS       LPS    10^6 ltr
  -----------------------------------------------------------
  CC-1                  29.80    683.00    683.00       3.349
  CC-2                  27.92    683.00    683.00       3.153
  JK-1                  14.43   1000.00   1000.00       1.578
  JK-2                   0.26   1000.00   1000.00       0.048
  WSC                   99.92    364.59    752.66       8.781
  -----------------------------------------------------------
  System                34.47   3730.59   3366.23      16.910
  
  
  ********************
  Link Flow Summary
  ********************
  
  -----------------------------------------------------------------------------
                                 Maximum  Time of Max   Maximum    Max/    Max/
                                  |Flow|   Occurrence   |Veloc|    Full    Full
  Link                 Type          LPS  days hr:min     m/sec    Flow   Depth
  -----------------------------------------------------------------------------
  1                    CONDUIT    752.66     0  02:52      3.08    0.26    0.35
  WS02001211WS02001212 CONDUIT    202.67     0  02:56      0.54    0.15    0.51
  WS02001212WS02001213 CONDUIT    204.38     0  02:57      1.04    0.32    0.36
  WS02001213WS02003059 CONDUIT    207.85     0  03:27      0.47    0.34    0.67
  WS02003059WS02003060 CONDUIT    213.96     0  03:27      0.67    0.14    0.58
  WS02003060WS02003069 CONDUIT    750.75     0  02:50      1.77    0.29    0.40
  WS02003066WSF200     CONDUIT    536.85     0  02:29      2.74    0.09    0.23
  WS02003067WS02003066 CONDUIT    536.83     0  02:29      1.21    0.17    0.42
  WS02003069WS02003072 CONDUIT    750.96     0  02:51      1.51    0.36    0.45
  WS02003072WS02003073 CONDUIT    750.89     0  02:51      1.60    1.62    0.43
  WS02004138WS02004139 CONDUIT    190.84     0  00:29      2.17    0.04    0.33
  WS02004139WS02001211 CONDUIT    193.18     0  02:56      0.54    0.24    0.47
  WS02004401WS02004402 CONDUIT    538.18     0  02:32      0.97    0.65    0.86
  WS02004402WS02004403 CONDUIT    537.45     0  02:33      0.97    0.77    0.88
  WS02004403WS02004404 CONDUIT    537.60     0  02:33      0.92    0.39    0.93
  WS02004404WS02004405 CONDUIT    537.80     0  02:33      1.08    5.27    0.96
  WS02004405WS02004406 CONDUIT    537.70     0  02:33      0.99    1.06    0.96
  WS02004406WS02004407 CONDUIT    537.40     0  02:33      1.04    0.24    0.63
  WS02004407WS02004409 CONDUIT    537.13     0  02:33      1.57    0.19    0.48
  WS02004409WS02004410 CONDUIT    537.01     0  02:27      1.05    0.69    0.67
  WS02004410WS02004411 CONDUIT    536.99     0  02:27      1.00    0.73    0.69
  WS02004411WS02004412 CONDUIT    536.88     0  02:28      0.92    0.76    0.69
  WS02004412WS02004413 CONDUIT    536.97     0  02:28      0.82    0.36    0.78
  WS02004413WS02003067 CONDUIT    536.80     0  02:28      1.11    0.23    0.59
  WS02006109WS02006110 CONDUIT    548.22     0  03:07      1.09    1.05    1.00
  WS02006110WS02006113 CONDUIT    560.21     0  03:07      1.35    0.51    0.78
  WS02006111WS02006112 CONDUIT    543.27     0  02:32      1.82    0.26    0.67
  WS02006112WS02006115 CONDUIT    551.82     0  02:19      0.88    0.33    0.87
  WS02006113WS02006111 CONDUIT    560.24     0  02:28      2.46    0.67    0.46
  WS02006115WS02006116 CONDUIT    539.87     0  02:32      1.10    0.69    0.76
  WS02006116WS02004401 CONDUIT    538.43     0  02:32      0.98    0.74    0.84
  WS02006228WS02006109 CONDUIT    546.48     0  03:07      1.09    2.39    1.00
  WS02006229WS02006228 CONDUIT    546.10     0  03:07      1.15    1.81    1.00
  WS02006230WS02006229 CONDUIT    545.78     0  03:07      1.42   12.15    1.00
  WS02006231WS02006230 CONDUIT    572.48     0  03:06      1.54    8.68    1.00
  WS02006232WS02006231 CONDUIT    571.98     0  03:06      1.49    1.20    1.00
  WS02006234WS02006232 CONDUIT    571.36     0  03:06      1.48    1.16    1.00
  WS02006235WS02006234 CONDUIT    566.92     0  03:06      1.47    5.98    1.00
  WS02006238WS02006235 CONDUIT    421.45     0  02:48      1.57    0.94    1.00
  WS02006239WS02006238 CONDUIT    420.62     0  02:48      1.11    1.35    1.00
  WS02006240WS02006239 CONDUIT    420.46     0  02:48      1.24    1.32    1.00
  WS02006242WS02006240 CONDUIT    418.23     0  02:48      1.12    1.66    1.00
  WS02006243WS02006242 CONDUIT    418.81     0  02:48      1.39    0.89    1.00
  WS02006245WS02006243 CONDUIT    418.51     0  02:48      1.45    1.24    1.00
  WS02006247WS02006245 CONDUIT    417.40     0  02:48      1.44    3.31    1.00
  WS02006248WS02006247 CONDUIT    416.69     0  02:48      1.45    0.91    1.00
  WS02006249WS02006248 CONDUIT    416.13     0  02:48      1.37    2.28    1.00
  WS02006251WS02006249 CONDUIT    458.97     0  00:00      1.99    1.32    1.00
  WS02006252WS02006251 CONDUIT    406.60     0  02:02     25.11    1.49    1.00
  WS02006256WS02006235 CONDUIT    289.22     0  01:54      4.23    3.06    1.00
  WSF200WS02003060     CONDUIT    537.03     0  02:29      1.76    0.12    0.32
  YS02001580YS02001583 CONDUIT    141.26     0  01:57      0.82    0.55    1.00
  YS02001583YS02001586 CONDUIT    187.26     0  01:57      0.82    0.28    1.00
  YS02001586YS02001590 CONDUIT    317.89     0  02:16      1.28    0.56    1.00
  YS02001590YS02001593 CONDUIT    318.01     0  02:16      1.12    2.00    1.00
  YS02001593YS02001596 CONDUIT    318.24     0  02:14      1.74    0.50    1.00
  YS02001596YS02001600 CONDUIT    318.00     0  02:07      1.22    0.62    1.00
  YS02001600YS02001601 CONDUIT    317.93     0  02:14      1.12    0.55    1.00
  YS02001601YS02001602 CONDUIT    550.50     0  01:57      1.95    1.99    1.00
  YS02001602YS02001605 CONDUIT    550.24     0  01:57      1.95   11.64    1.00
  YS02001605YS02001607 CONDUIT    550.15     0  01:56      1.95    3.02    1.00
  YS02001607YS02001610 CONDUIT    545.34     0  01:57      0.69    0.52    1.00
  YS02001610YS02001613 CONDUIT    551.84     0  01:57      0.70    0.64    1.00
  YS02001613YS02001616 CONDUIT    565.03     0  01:57      0.72    0.48    1.00
  YS02001616YS02001619 CONDUIT    534.41     0  01:57      0.68    0.93    1.00
  YS02001619YS02001622 CONDUIT    995.38     0  01:57      1.27    1.47    1.00
  YS02001622YS02001625 CONDUIT    956.77     0  01:57      1.22    0.51    1.00
  YS02001625YS02001629 CONDUIT    956.84     0  01:57      1.22    0.45    1.00
  YS02001629YS02163301 CONDUIT    930.39     0  01:58      1.18    1.15    1.00
  YS02001633YS02163601 CONDUIT   1442.17     0  01:59      1.84    1.51    1.00
  YS02001641YS02001644 CONDUIT   1446.00     0  01:59      1.84    4.67    1.00
  YS02001644YS02001647 CONDUIT   1902.30     0  01:59      2.43    1.12    1.00
  YS02001647YS02001649 CONDUIT   1874.95     0  01:59      2.39    0.99    1.00
  YS02001649YS02001757 CONDUIT   2119.10     0  01:59      2.70    1.29    1.00
  YS02001652YS02001649 CONDUIT    908.94     0  02:02      1.16    0.45    1.00
  YS02001655YS02001652 CONDUIT    908.94     0  02:02      1.40    0.44    1.00
  YS02001658YS02001655 CONDUIT    907.96     0  02:02      1.99    0.39    1.00
  YS02001661YS02001658 CONDUIT    908.31     0  02:02      2.40    0.36    1.00
  YS02001664YS02001661 CONDUIT    888.79     0  02:01      2.46    0.28    0.93
  YS02001745YS02001748 CONDUIT    599.49     0  02:01      2.27    0.23    1.00
  YS02001748YS02001751 CONDUIT    601.85     0  02:01      1.78    0.30    1.00
  YS02001751YS02001754 CONDUIT    601.87     0  02:01      1.51    0.29    1.00
  YS02001754YS02001757 CONDUIT    601.56     0  02:01      0.77    0.24    1.00
  YS02001757CaochengTiaoxuchi CONDUIT   3340.24     0  02:01      4.25    1.45    1.00
  YS02001759YS02001757 CONDUIT   1399.06     0  02:00      1.78    0.99    1.00
  YS02001762YS02001759 CONDUIT    801.89     0  02:00      1.02    0.92    1.00
  YS02001765YS02001762 CONDUIT    803.91     0  02:00      1.02    0.75    1.00
  YS02001767YS02001765 CONDUIT    805.03     0  02:00      1.02    1.01    1.00
  YS02001770YS02001767 CONDUIT    805.27     0  02:00      1.03    3.19    1.00
  YS02001774YS02001770 CONDUIT    562.01     0  01:59      0.72    0.36    1.00
  YS02001779YS02001774 CONDUIT    573.33     0  01:59      0.73    0.29    1.00
  YS02001783YS02001784 CONDUIT   1161.65     0  02:01      2.31    1.60    1.00
  YS02001784YS02001785 CONDUIT   1162.58     0  02:01      2.31    2.71    1.00
  YS02001786YS02001788 CONDUIT   1162.81     0  02:00      2.49    2.24    0.89
  YS02001788YS02001790 CONDUIT   1169.96     0  02:03      2.72    0.86    0.84
  YS02001790YS02001791 CONDUIT   1278.97     0  02:01      3.41    1.39    0.70
  YS02001791YS02001793 CONDUIT   1243.73     0  02:03      6.72    0.53    0.45
  YS02001793JiankangQianchi CONDUIT   1228.09     0  02:01      2.47    0.10    0.65
  YS02001882YS02001884 CONDUIT     94.91     0  01:58      0.12    0.11    1.00
  YS02001884YS02001887 CONDUIT    122.08     0  01:58      0.16    0.16    1.00
  YS02001887YS02001890 CONDUIT    670.38     0  02:01      0.85    1.15    1.00
  YS02001890YS02001895 CONDUIT    550.72     0  01:59      0.70    0.26    1.00
  YS02001895YS02001898 CONDUIT    549.52     0  01:59      0.70    0.95    1.00
  YS02001898YS02001901 CONDUIT    547.64     0  01:59      0.70    0.35    1.00
  YS02001901YS02001904 CONDUIT    544.71     0  01:59      0.69    0.84    1.00
  YS02001904YS02001907 CONDUIT    545.28     0  01:59      0.69    0.19    1.00
  YS02001907YS02006553 CONDUIT    796.66     0  02:13      0.89    0.94    1.00
  YS02001910YS02001907 CONDUIT   1129.23     0  02:01      1.44    0.64    1.00
  YS02001915YS02001910 CONDUIT   1129.62     0  02:01      1.44    0.56    1.00
  YS02001918YS02001915 CONDUIT    563.38     0  01:59      0.72    0.31    1.00
  YS02001920YS02001918 CONDUIT    531.55     0  01:59      0.68    0.51    1.00
  YS02001923YS02001920 CONDUIT    536.34     0  01:59      0.74    0.24    1.00
  YS02001926YS02001923 CONDUIT    741.82     0  01:59      1.16    1.06    1.00
  YS02001929YS02001926 CONDUIT    586.21     0  02:00      1.22    0.28    1.00
  YS02006553YS02006556 CONDUIT    796.45     0  02:13      1.01    0.68    1.00
  YS02006556YS02006558 CONDUIT    800.15     0  02:13      1.02    0.63    1.00
  YS02006558YS02006561 CONDUIT   1174.16     0  01:59      4.15    2.60    1.00
  YS02006561YS02001783 CONDUIT   1161.58     0  02:00      2.31    0.60    1.00
  YS02163301YS02001633 CONDUIT    930.52     0  01:58      1.18    0.87    1.00
  YS02163601YS02164001 CONDUIT   1442.20     0  01:58      1.84    1.28    1.00
  YS02164001YS02001641 CONDUIT   1444.52     0  01:59      1.84    1.97    1.00
  CC-R1                PUMP       683.00     0  00:00              1.00
  CC-R2                PUMP       683.00     0  00:00              1.00
  CC-S1                PUMP       200.00     0  00:00              1.00
  CC-S2                PUMP       200.00     0  00:00              1.00
  JK-R1                PUMP      1000.00     0  00:00              1.00
  JK-R2                PUMP      1000.00     0  00:00              1.00
  JK-S                 PUMP       300.00     0  00:00              1.00
  XR-1                 PUMP        95.00     0  00:00              1.00
  XR-2                 PUMP        95.00     0  00:00              1.00
  XR-3                 PUMP        95.00     0  00:00              1.00
  XR-4                 PUMP        95.00     0  00:00              1.00
  
  
  ***************************
  Flow Classification Summary
  ***************************
  
  -------------------------------------------------------------------------------------
                      Adjusted    ---------- Fraction of Time in Flow Class ---------- 
                       /Actual         Up    Down  Sub   Sup   Up    Down  Norm  Inlet 
  Conduit               Length    Dry  Dry   Dry   Crit  Crit  Crit  Crit  Ltd   Ctrl  
  -------------------------------------------------------------------------------------
  1                       1.00   0.00  0.00  0.00  0.00  1.00  0.00  0.00  0.17  0.00
  WS02001211WS02001212    1.00   0.00  0.02  0.00  0.98  0.00  0.00  0.00  0.00  0.00
  WS02001212WS02001213    1.00   0.02  0.00  0.00  0.18  0.00  0.79  0.00  0.00  0.00
  WS02001213WS02003059    1.00   0.00  0.01  0.00  0.99  0.00  0.00  0.00  0.00  0.00
  WS02003059WS02003060    1.00   0.00  0.00  0.00  1.00  0.00  0.00  0.00  0.03  0.00
  WS02003060WS02003069    1.00   0.00  0.00  0.00  0.98  0.02  0.00  0.00  0.71  0.00
  WS02003066WSF200        1.00   0.13  0.00  0.00  0.00  0.87  0.00  0.00  0.77  0.00
  WS02003067WS02003066    1.00   0.10  0.02  0.00  0.88  0.00  0.00  0.00  0.00  0.00
  WS02003069WS02003072    1.00   0.00  0.00  0.00  1.00  0.00  0.00  0.00  0.79  0.00
  WS02003072WS02003073    1.00   0.00  0.00  0.00  0.00  0.00  0.00  1.00  0.00  0.00
  WS02004138WS02004139    1.00   0.00  0.00  0.00  0.97  0.01  0.00  0.02  0.98  0.00
  WS02004139WS02001211    1.00   0.00  0.00  0.00  0.99  0.00  0.00  0.00  0.00  0.00
  WS02004401WS02004402    1.00   0.02  0.00  0.00  0.98  0.00  0.00  0.00  0.00  0.00
  WS02004402WS02004403    1.00   0.02  0.00  0.00  0.97  0.00  0.00  0.00  0.00  0.00
  WS02004403WS02004404    1.00   0.00  0.03  0.00  0.97  0.00  0.00  0.00  0.00  0.00
  WS02004404WS02004405    1.00   0.00  0.00  0.00  1.00  0.00  0.00  0.00  0.00  0.00
  WS02004405WS02004406    1.00   0.00  0.00  0.00  1.00  0.00  0.00  0.00  0.00  0.00
  WS02004406WS02004407    1.00   0.00  0.05  0.00  0.95  0.00  0.00  0.00  0.00  0.00
  WS02004407WS02004409    1.00   0.05  0.00  0.00  0.94  0.01  0.00  0.00  0.94  0.00
  WS02004409WS02004410    1.00   0.05  0.00  0.00  0.95  0.00  0.00  0.00  0.03  0.00
  WS02004410WS02004411    1.00   0.05  0.00  0.00  0.95  0.00  0.00  0.00  0.01  0.00
  WS02004411WS02004412    1.00   0.05  0.00  0.00  0.95  0.00  0.00  0.00  0.00  0.00
  WS02004412WS02004413    1.00   0.05  0.00  0.00  0.94  0.00  0.00  0.00  0.01  0.00
  WS02004413WS02003067    1.00   0.06  0.04  0.00  0.00  0.00  0.90  0.00  0.00  0.00
  WS02006109WS02006110    1.00   0.00  0.01  0.00  0.98  0.00  0.01  0.00  0.00  0.00
  WS02006110WS02006113    1.00   0.01  0.01  0.00  0.98  0.00  0.00  0.00  0.00  0.00
  WS02006111WS02006112    1.00   0.02  0.00  0.00  0.98  0.00  0.00  0.00  0.98  0.00
  WS02006112WS02006115    1.00   0.02  0.00  0.00  0.97  0.00  0.00  0.00  0.00  0.00
  WS02006113WS02006111    1.00   0.02  0.00  0.00  0.00  0.98  0.00  0.00  0.08  0.00
  WS02006115WS02006116    1.00   0.02  0.00  0.00  0.97  0.00  0.00  0.01  0.00  0.00
  WS02006116WS02004401    1.00   0.02  0.00  0.00  0.98  0.00  0.00  0.00  0.00  0.00
  WS02006228WS02006109    1.00   0.00  0.00  0.00  1.00  0.00  0.00  0.00  0.00  0.00
  WS02006229WS02006228    1.00   0.00  0.00  0.00  0.99  0.00  0.00  0.01  0.00  0.00
  WS02006230WS02006229    1.00   0.00  0.00  0.00  0.99  0.00  0.00  0.01  0.03  0.00
  WS02006231WS02006230    1.00   0.00  0.00  0.00  0.16  0.00  0.83  0.00  0.00  0.00
  WS02006232WS02006231    1.00   0.00  0.00  0.00  0.98  0.00  0.01  0.00  0.00  0.00
  WS02006234WS02006232    1.00   0.00  0.00  0.00  1.00  0.00  0.00  0.00  0.35  0.00
  WS02006235WS02006234    1.00   0.00  0.00  0.00  0.59  0.00  0.41  0.00  0.00  0.00
  WS02006238WS02006235    1.00   0.00  0.00  0.00  1.00  0.00  0.00  0.00  0.00  0.00
  WS02006239WS02006238    1.00   0.00  0.00  0.00  1.00  0.00  0.00  0.00  0.50  0.00
  WS02006240WS02006239    1.00   0.00  0.00  0.00  0.43  0.00  0.00  0.57  0.03  0.00
  WS02006242WS02006240    1.00   0.00  0.00  0.00  1.00  0.00  0.00  0.00  0.00  0.00
  WS02006243WS02006242    1.00   0.00  0.00  0.00  0.99  0.00  0.00  0.01  0.75  0.00
  WS02006245WS02006243    1.00   0.00  0.00  0.00  0.47  0.00  0.00  0.53  0.03  0.00
  WS02006247WS02006245    1.00   0.00  0.00  0.00  0.98  0.00  0.00  0.02  0.00  0.00
  WS02006248WS02006247    1.00   0.00  0.00  0.00  0.99  0.00  0.00  0.01  0.23  0.00
  WS02006249WS02006248    1.00   0.00  0.00  0.00  0.28  0.00  0.72  0.00  0.00  0.00
  WS02006251WS02006249    1.00   0.00  0.00  0.00  0.99  0.01  0.00  0.00  0.75  0.00
  WS02006252WS02006251    1.00   0.00  0.75  0.00  0.10  0.00  0.15  0.00  0.01  0.00
  WS02006256WS02006235    1.00   0.00  0.00  0.00  0.99  0.01  0.00  0.00  0.00  0.00
  WSF200WS02003060        1.00   0.00  0.13  0.00  0.72  0.16  0.00  0.00  0.70  0.00
  YS02001580YS02001583    1.00   0.24  0.60  0.00  0.16  0.00  0.00  0.00  0.69  0.00
  YS02001583YS02001586    1.00   0.50  0.28  0.00  0.22  0.00  0.00  0.00  0.69  0.00
  YS02001586YS02001590    1.00   0.13  0.00  0.00  0.37  0.04  0.00  0.46  0.33  0.00
  YS02001590YS02001593    1.00   0.13  0.01  0.00  0.08  0.00  0.78  0.00  0.00  0.00
  YS02001593YS02001596    1.00   0.14  0.00  0.00  0.09  0.01  0.00  0.76  0.01  0.00
  YS02001596YS02001600    1.00   0.14  0.00  0.00  0.16  0.02  0.00  0.69  0.05  0.00
  YS02001600YS02001601    1.00   0.13  0.01  0.00  0.86  0.00  0.00  0.00  0.64  0.00
  YS02001601YS02001602    1.00   0.13  0.01  0.00  0.86  0.00  0.00  0.00  0.00  0.00
  YS02001602YS02001605    1.00   0.14  0.00  0.00  0.86  0.00  0.00  0.00  0.00  0.00
  YS02001605YS02001607    1.00   0.14  0.00  0.00  0.86  0.00  0.00  0.00  0.00  0.00
  YS02001607YS02001610    1.00   0.13  0.01  0.00  0.86  0.00  0.00  0.00  0.02  0.00
  YS02001610YS02001613    1.00   0.13  0.00  0.00  0.87  0.00  0.00  0.00  0.01  0.00
  YS02001613YS02001616    1.00   0.13  0.00  0.00  0.87  0.00  0.00  0.00  0.01  0.00
  YS02001616YS02001619    1.00   0.13  0.00  0.00  0.87  0.00  0.00  0.00  0.00  0.00
  YS02001619YS02001622    1.00   0.13  0.00  0.00  0.87  0.00  0.00  0.00  0.36  0.00
  YS02001622YS02001625    1.00   0.13  0.00  0.00  0.87  0.00  0.00  0.00  0.06  0.00
  YS02001625YS02001629    1.00   0.13  0.06  0.00  0.12  0.00  0.70  0.00  0.00  0.00
  YS02001629YS02163301    1.00   0.16  0.01  0.00  0.83  0.00  0.00  0.00  0.00  0.00
  YS02001633YS02163601    1.00   0.00  0.01  0.00  0.99  0.00  0.00  0.00  0.15  0.00
  YS02001641YS02001644    1.00   0.00  0.01  0.00  0.99  0.00  0.00  0.00  0.00  0.00
  YS02001644YS02001647    1.00   0.00  0.18  0.00  0.82  0.00  0.00  0.00  0.00  0.00
  YS02001647YS02001649    1.00   0.00  0.18  0.00  0.55  0.26  0.00  0.00  0.60  0.00
  YS02001649YS02001757    1.00   0.00  0.00  0.00  0.71  0.29  0.00  0.00  0.57  0.00
  YS02001652YS02001649    1.00   0.00  0.00  0.00  0.96  0.04  0.00  0.00  0.79  0.00
  YS02001655YS02001652    1.00   0.00  0.00  0.00  0.13  0.02  0.00  0.86  0.04  0.00
  YS02001658YS02001655    1.00   0.00  0.15  0.00  0.65  0.21  0.00  0.00  0.73  0.00
  YS02001661YS02001658    1.00   0.14  0.00  0.00  0.51  0.34  0.00  0.00  0.72  0.00
  YS02001664YS02001661    1.00   0.13  0.00  0.00  0.79  0.08  0.00  0.00  0.86  0.00
  YS02001745YS02001748    1.00   0.00  0.00  0.00  0.06  0.01  0.00  0.93  0.04  0.00
  YS02001748YS02001751    1.00   0.00  0.00  0.00  0.83  0.17  0.00  0.00  0.79  0.00
  YS02001751YS02001754    1.00   0.00  0.00  0.00  0.11  0.00  0.00  0.88  0.02  0.00
  YS02001754YS02001757    1.00   0.00  0.00  0.00  1.00  0.00  0.00  0.00  0.88  0.00
  YS02001757CaochengTiaoxuchi    1.00   0.00  0.00  0.00  1.00  0.00  0.00  0.00  0.87  0.00
  YS02001759YS02001757    1.00   0.00  0.00  0.00  1.00  0.00  0.00  0.00  0.63  0.00
  YS02001762YS02001759    1.00   0.00  0.00  0.00  1.00  0.00  0.00  0.00  0.05  0.00
  YS02001765YS02001762    1.00   0.00  0.00  0.00  1.00  0.00  0.00  0.00  0.78  0.00
  YS02001767YS02001765    1.00   0.00  0.00  0.00  1.00  0.00  0.00  0.00  0.00  0.00
  YS02001770YS02001767    1.00   0.00  0.00  0.00  1.00  0.00  0.00  0.00  0.00  0.00
  YS02001774YS02001770    1.00   0.00  0.14  0.00  0.59  0.00  0.27  0.00  0.04  0.00
  YS02001779YS02001774    1.00   0.00  0.00  0.00  1.00  0.00  0.00  0.00  0.83  0.00
  YS02001783YS02001784    1.00   0.00  0.19  0.00  0.81  0.00  0.00  0.00  0.58  0.00
  YS02001784YS02001785    1.00   0.00  0.00  0.00  1.00  0.00  0.00  0.00  0.18  0.00
  YS02001786YS02001788    1.00   0.00  0.00  0.00  0.81  0.19  0.00  0.00  0.00  0.00
  YS02001788YS02001790    1.00   0.00  0.00  0.00  0.22  0.78  0.00  0.00  0.85  0.00
  YS02001790YS02001791    1.00   0.00  0.00  0.00  0.01  0.99  0.00  0.00  0.14  0.00
  YS02001791YS02001793    1.00   0.00  0.00  0.00  0.00  1.00  0.00  0.00  0.01  0.00
  YS02001793JiankangQianchi    1.00   0.00  0.00  0.00  0.99  0.01  0.00  0.00  0.97  0.00
  YS02001882YS02001884    1.00   0.16  0.01  0.00  0.83  0.00  0.00  0.00  0.00  0.00
  YS02001884YS02001887    1.00   0.06  0.05  0.00  0.89  0.00  0.00  0.00  0.00  0.00
  YS02001887YS02001890    1.00   0.00  0.00  0.00  0.97  0.00  0.03  0.00  0.00  0.00
  YS02001890YS02001895    1.00   0.00  0.17  0.00  0.82  0.00  0.00  0.00  0.00  0.00
  YS02001895YS02001898    1.00   0.18  0.00  0.00  0.80  0.00  0.02  0.00  0.00  0.00
  YS02001898YS02001901    1.00   0.18  0.00  0.00  0.82  0.00  0.00  0.00  0.01  0.00
  YS02001901YS02001904    1.00   0.18  0.00  0.00  0.82  0.00  0.00  0.00  0.00  0.00
  YS02001904YS02001907    1.00   0.00  0.17  0.00  0.82  0.00  0.00  0.00  0.00  0.00
  YS02001907YS02006553    1.00   0.00  0.02  0.00  0.98  0.00  0.00  0.00  0.00  0.00
  YS02001910YS02001907    1.00   0.00  0.00  0.00  0.97  0.00  0.00  0.03  0.12  0.00
  YS02001915YS02001910    1.00   0.00  0.00  0.00  0.96  0.04  0.00  0.00  0.17  0.00
  YS02001918YS02001915    1.00   0.00  0.01  0.00  0.98  0.02  0.00  0.00  0.79  0.00
  YS02001920YS02001918    1.00   0.00  0.01  0.00  0.99  0.00  0.00  0.00  0.00  0.00
  YS02001923YS02001920    1.00   0.00  0.00  0.00  1.00  0.00  0.00  0.00  0.95  0.00
  YS02001926YS02001923    1.00   0.00  0.07  0.00  0.04  0.00  0.89  0.00  0.00  0.00
  YS02001929YS02001926    1.00   0.00  0.13  0.00  0.87  0.00  0.00  0.00  0.84  0.00
  YS02006553YS02006556    1.00   0.01  0.00  0.00  0.99  0.00  0.00  0.00  0.03  0.00
  YS02006556YS02006558    1.00   0.00  0.00  0.00  1.00  0.00  0.00  0.00  0.00  0.00
  YS02006558YS02006561    1.00   0.19  0.00  0.00  0.04  0.77  0.00  0.00  0.18  0.00
  YS02006561YS02001783    1.00   0.19  0.00  0.00  0.06  0.75  0.00  0.00  0.72  0.00
  YS02163301YS02001633    1.00   0.00  0.16  0.00  0.84  0.00  0.00  0.00  0.00  0.00
  YS02163601YS02164001    1.00   0.00  0.08  0.00  0.92  0.00  0.00  0.00  0.00  0.00
  YS02164001YS02001641    1.00   0.01  0.07  0.00  0.92  0.00  0.00  0.00  0.06  0.00
  
  
  *************************
  Conduit Surcharge Summary
  *************************
  
  ----------------------------------------------------------------------------
                                                           Hours        Hours 
                         --------- Hours Full --------   Above Full   Capacity
  Conduit                Both Ends  Upstream  Dnstream   Normal Flow   Limited
  ----------------------------------------------------------------------------
  WS02003072WS02003073        0.01      0.01      0.01      1.43         0.01
  WS02004404WS02004405        0.01      0.01      0.01      1.67         0.01
  WS02004405WS02004406        0.01      0.01      0.01      0.68         0.01
  WS02006109WS02006110        0.78      0.78      1.28      0.81         0.01
  WS02006110WS02006113        0.01      0.01      1.27      0.01         0.01
  WS02006111WS02006112        0.01      0.01      1.40      0.01         0.01
  WS02006112WS02006115        0.01      0.01      0.71      0.01         0.01
  WS02006228WS02006109        1.26      1.28      1.26      1.46         1.26
  WS02006229WS02006228        1.26      1.26      1.26      1.38         1.25
  WS02006230WS02006229        1.30      1.33      1.30      2.43         1.30
  WS02006231WS02006230        0.79      0.79      0.82      1.94         0.01
  WS02006232WS02006231        0.81      0.81      1.28      0.84         0.01
  WS02006234WS02006232        1.25      1.25      1.28      0.82         0.83
  WS02006235WS02006234        0.93      0.93      1.25      1.86         0.01
  WS02006238WS02006235        1.26      1.26      1.28      0.01         0.01
  WS02006239WS02006238        1.27      1.27      1.27      1.28         1.19
  WS02006240WS02006239        1.26      1.26      1.26      1.28         1.12
  WS02006242WS02006240        1.26      1.26      1.28      1.33         0.01
  WS02006243WS02006242        1.25      1.25      1.27      0.01         0.01
  WS02006245WS02006243        1.25      1.25      1.25      0.49         0.55
  WS02006247WS02006245        1.25      1.25      1.25      1.47         1.24
  WS02006248WS02006247        1.24      1.24      1.25      0.01         0.01
  WS02006249WS02006248        1.24      1.24      1.24      1.46         0.01
  WS02006251WS02006249        1.24      1.24      1.24      1.35         1.22
  WS02006252WS02006251        1.42      1.42      1.42      1.42         0.01
  WS02006256WS02006235        1.86      1.88      4.05      1.21         0.01
  YS02001580YS02001583        0.40      0.40      0.44      0.01         0.01
  YS02001583YS02001586        0.40      0.40      0.51      0.01         0.01
  YS02001586YS02001590        0.51      0.51      0.56      0.01         0.01
  YS02001590YS02001593        0.57      0.57      0.58      0.60         0.01
  YS02001593YS02001596        0.57      0.57      0.65      0.01         0.01
  YS02001596YS02001600        0.69      0.69      0.76      0.01         0.01
  YS02001600YS02001601        0.81      0.81      1.07      0.01         0.01
  YS02001601YS02001602        0.96      0.96      1.12      0.76         0.01
  YS02001602YS02001605        0.91      0.91      0.96      1.88         0.01
  YS02001605YS02001607        0.87      0.91      0.87      1.03         0.87
  YS02001607YS02001610        0.54      0.54      0.55      0.01         0.01
  YS02001610YS02001613        0.53      0.53      0.55      0.01         0.01
  YS02001613YS02001616        0.50      0.50      0.53      0.01         0.01
  YS02001616YS02001619        0.48      0.48      0.50      0.01         0.01
  YS02001619YS02001622        0.48      0.48      0.48      0.59         0.46
  YS02001622YS02001625        0.48      0.48      0.63      0.01         0.01
  YS02001625YS02001629        0.45      0.45      0.63      0.01         0.01
  YS02001629YS02163301        0.62      0.62      0.63      0.14         0.14
  YS02001633YS02163601        0.65      0.65      0.67      0.28         0.28
  YS02001641YS02001644        0.57      0.59      0.57      1.17         0.56
  YS02001644YS02001647        0.40      0.40      0.57      0.04         0.01
  YS02001647YS02001649        0.40      0.40      0.49      0.01         0.01
  YS02001649YS02001757        0.49      0.49      0.54      0.05         0.07
  YS02001652YS02001649        0.36      0.36      0.49      0.01         0.01
  YS02001655YS02001652        0.23      0.23      0.34      0.01         0.01
  YS02001658YS02001655        0.11      0.11      0.23      0.01         0.01
  YS02001661YS02001658        0.01      0.01      0.11      0.01         0.01
  YS02001664YS02001661        0.01      0.01      0.02      0.01         0.01
  YS02001745YS02001748        0.01      0.01      0.04      0.01         0.01
  YS02001748YS02001751        0.09      0.09      0.15      0.01         0.01
  YS02001751YS02001754        0.15      0.15      0.27      0.01         0.01
  YS02001754YS02001757        0.30      0.30      0.54      0.01         0.01
  YS02001757CaochengTiaoxuchi        0.54      0.54      1.01      0.25         0.23
  YS02001759YS02001757        0.46      0.46      0.54      0.01         0.01
  YS02001762YS02001759        0.44      0.44      0.46      0.01         0.02
  YS02001765YS02001762        0.39      0.39      0.44      0.01         0.01
  YS02001767YS02001765        0.37      0.37      0.39      0.01         0.02
  YS02001770YS02001767        0.37      0.37      0.37      0.37         0.26
  YS02001774YS02001770        0.35      0.35      0.42      0.01         0.01
  YS02001779YS02001774        0.27      0.27      0.42      0.01         0.01
  YS02001783YS02001784        0.34      0.36      0.34      0.47         0.34
  YS02001784YS02001785        0.26      0.34      0.26      0.62         0.26
  YS02001786YS02001788        0.01      0.26      0.01      0.54         0.01
  YS02001790YS02001791        0.01      0.01      0.01      0.33         0.01
  YS02001793JiankangQianchi        0.01      0.01      7.70      0.01         0.01
  YS02001882YS02001884        0.32      0.32      0.32      0.01         0.01
  YS02001884YS02001887        0.34      0.34      0.35      0.01         0.01
  YS02001887YS02001890        0.36      0.36      0.37      0.05         0.01
  YS02001890YS02001895        0.31      0.31      0.38      0.01         0.01
  YS02001895YS02001898        0.30      0.30      0.31      0.01         0.01
  YS02001898YS02001901        0.31      0.31      0.34      0.01         0.01
  YS02001901YS02001904        0.33      0.33      0.34      0.01         0.01
  YS02001904YS02001907        0.33      0.33      0.52      0.01         0.01
  YS02001907YS02006553        0.63      0.63      0.68      0.01         0.01
  YS02001910YS02001907        0.38      0.38      0.52      0.01         0.01
  YS02001915YS02001910        0.31      0.31      0.38      0.01         0.01
  YS02001918YS02001915        0.24      0.24      0.31      0.01         0.01
  YS02001920YS02001918        0.24      0.24      0.25      0.01         0.01
  YS02001923YS02001920        0.20      0.20      0.25      0.01         0.01
  YS02001926YS02001923        0.01      0.01      0.02      0.01         0.01
  YS02001929YS02001926        0.01      0.01      0.02      0.01         0.01
  YS02006553YS02006556        0.45      0.45      0.52      0.01         0.01
  YS02006556YS02006558        0.48      0.48      0.54      0.01         0.01
  YS02006558YS02006561        0.28      0.44      0.28      0.59         0.28
  YS02006561YS02001783        0.21      0.21      0.36      0.01         0.01
  YS02163301YS02001633        0.63      0.63      0.66      0.01         0.01
  YS02163601YS02164001        0.60      0.60      0.67      0.04         0.01
  YS02164001YS02001641        0.59      0.60      0.59      0.55         0.47
  
  
  ***************
  Pumping Summary
  ***************
  
  ---------------------------------------------------------------------------------------------------------
                                                  Min       Avg       Max     Total     Power    % Time Off
                        Percent   Number of      Flow      Flow      Flow    Volume     Usage    Pump Curve
  Pump                 Utilized   Start-Ups       LPS       LPS       LPS  10^6 ltr     Kw-hr    Low   High
  ---------------------------------------------------------------------------------------------------------
  CC-R1                   17.01          16      0.00    683.00    683.00     3.346     60.92    0.0   30.2
  CC-R2                   16.01          16      0.00    683.00    683.00     3.150     57.28    0.0   32.1
  CC-S1                   19.16          16      0.00    200.00    200.00     1.104      6.60    0.0    0.0
  CC-S2                   17.77          16      0.00    200.00    200.00     1.023      6.12    0.0    0.0
  JK-R1                    5.47           8      0.00   1000.00   1000.00     1.577     17.88    0.0    0.0
  JK-R2                    0.16           1      0.00   1000.00   1000.00     0.047      0.36    0.0    0.0
  JK-S                    15.04           7      0.00    300.00    300.00     1.300     19.31    0.0    0.0
  XR-1                    97.91           2      0.00     95.00     95.00     2.679      9.60    0.0    0.0
  XR-2                    93.94           2      0.00     95.00     95.00     2.570      8.76    0.0    0.0
  XR-3                     0.00           1      0.00     95.00     95.00     0.000      0.00    0.0    0.0
  XR-4                     0.00           1      0.00     95.00     95.00     0.000      0.00    0.0    0.0
  

  Analysis begun on:  Wed Nov  5 16:32:00 2025
  Analysis ended on:  Wed Nov  5 16:32:02 2025
  Total elapsed time: 00:00:02