
  EPA STORM WATER MANAGEMENT MODEL - VERSION 5.2 (Build 5.2.4)
  PYSWMM TOOLKIT API - VERSION v1.0 (2023-11-27)
  ------------------------------------------------------------

  WARNING 04: minimum elevation drop used for Conduit WS02004404WS02004405
  WARNING 03: negative offset ignored for Link YS02001904YS02001907
  
  ****************
  Analysis Options
  ****************
  Flow Units ............... LPS
  Process Models:
    Rainfall/Runoff ........ YES
    RDII ................... NO
    Snowmelt ............... NO
    Groundwater ............ NO
    Flow Routing ........... YES
    Ponding Allowed ........ NO
    Water Quality .......... NO
  Infiltration Method ...... HORTON
  Flow Routing Method ...... DYNWAVE
  Surcharge Method ......... EXTRAN
  Starting Date ............ 08/28/2015 08:00:00
  Ending Date .............. 08/28/2015 16:00:00
  Antecedent Dry Days ...... 8.0
  Report Time Step ......... 00:01:00
  Wet Time Step ............ 00:01:00
  Dry Time Step ............ 00:01:00
  Routing Time Step ........ 30.00 sec
  Variable Time Step ....... YES
  Maximum Trials ........... 8
  Number of Threads ........ 4
  Head Tolerance ........... 0.001500 m
  
  
  **************************        Volume         Depth
  Runoff Quantity Continuity     hectare-m            mm
  **************************     ---------       -------
  Initial LID Storage ......         0.049         1.488
  Total Precipitation ......         1.883        56.764
  Evaporation Loss .........         0.000         0.000
  Infiltration Loss ........         0.077         2.307
  Surface Runoff ...........         1.384        41.727
  Final Storage ............         0.473        14.251
  Continuity Error (%) .....        -0.056
  
  
  **************************        Volume        Volume
  Flow Routing Continuity        hectare-m      10^6 ltr
  **************************     ---------     ---------
  Dry Weather Inflow .......         0.602         6.020
  Wet Weather Inflow .......         1.384        13.840
  Groundwater Inflow .......         0.000         0.000
  RDII Inflow ..............         0.000         0.000
  External Inflow ..........         0.105         1.045
  External Outflow .........         1.727        17.268
  Flooding Loss ............         0.340         3.395
  Evaporation Loss .........         0.000         0.000
  Exfiltration Loss ........         0.000         0.000
  Initial Stored Volume ....         0.303         3.031
  Final Stored Volume ......         0.333         3.327
  Continuity Error (%) .....        -0.225
  
  
  *************************
  Highest Continuity Errors
  *************************
  Node YS02001884 (4.88%)
  Node YS02001583 (-3.85%)
  Node YS02001774 (1.00%)
  
  
  ***************************
  Time-Step Critical Elements
  ***************************
  Link WS02004404WS02004405 (37.21%)
  Link WS02006238WS02006235 (16.60%)
  Link WS02006252WS02006251 (13.79%)
  Link YS02001791YS02001793 (9.99%)
  Link WS02003066WSF200 (5.39%)
  
  
  ********************************
  Highest Flow Instability Indexes
  ********************************
  Link WS02006113WS02006111 (28)
  Link WS02006111WS02006112 (18)
  Link WS02006252WS02006251 (16)
  Link WS02006238WS02006235 (16)
  Link YS02006558YS02006561 (14)
  
  
  *********************************
  Most Frequent Nonconverging Nodes
  *********************************
  Node CC-1 (14.39%)
  Node CC-2 (14.39%)
  Node JK-1 (14.39%)
  Node JK-2 (14.39%)
  Node WSC (14.39%)
  
  
  *************************
  Routing Time Step Summary
  *************************
  Minimum Time Step           :     0.01 sec
  Average Time Step           :     3.35 sec
  Maximum Time Step           :     7.04 sec
  % of Time in Steady State   :     0.00
  Average Iterations per Step :     3.18
  % of Steps Not Converging   :    14.39
  Time Step Frequencies       :
     30.000 - 13.228 sec      :     0.00 %
     13.228 -  5.833 sec      :    26.70 %
      5.833 -  2.572 sec      :    25.65 %
      2.572 -  1.134 sec      :    25.73 %
      1.134 -  0.500 sec      :    21.93 %
  
  
  ***************************
  Subcatchment Runoff Summary
  ***************************
  
  ------------------------------------------------------------------------------------------------------------------------------
                            Total      Total      Total      Total     Imperv       Perv      Total       Total     Peak  Runoff
                           Precip      Runon       Evap      Infil     Runoff     Runoff     Runoff      Runoff   Runoff   Coeff
  Subcatchment                 mm         mm         mm         mm         mm         mm         mm    10^6 ltr      LPS
  ------------------------------------------------------------------------------------------------------------------------------
  sub60                     56.76       0.00       0.00       1.35      37.63       3.91      41.53        0.55   428.80   0.732
  sub61                     56.76       0.00       0.00       2.08      37.59       5.81      43.40        0.80   626.77   0.765
  sub62                     56.76       0.00       0.00       0.92      40.08       2.65      42.73        1.17   857.79   0.753
  sub63                     56.76       0.00       0.00       3.85      32.20       9.63      41.83        0.95   717.23   0.737
  sub64                     56.76       0.00       0.00       1.84      36.66       4.79      41.45        1.00   700.84   0.730
  sub65                     56.76       0.00       0.00       1.69      39.57       4.37      43.94        1.21   816.38   0.774
  sub66                     56.76       0.00       0.00       4.55      31.13       8.51      39.64        1.85  1067.47   0.698
  sub67                     56.76       0.00       0.00       0.91      41.09       2.75      43.84        0.82   660.66   0.772
  sub68                     56.76       0.00       0.00       1.60      36.29       4.46      40.74        1.12   855.84   0.718
  sub69                     56.76       0.00       0.00       1.47      38.16       5.28      43.44        1.61  1054.85   0.765
  sub70                     56.76       0.00       0.00       5.02      30.56      10.78      41.34        1.19   614.99   0.728
  sub71                     56.76       0.00       0.00       0.85      36.40       2.40      38.80        1.01   706.59   0.684
  sub72                     56.76       0.00       0.00       0.81      39.32       2.23      41.54        0.57   362.35   0.732
  

  ***********************
  LID Performance Summary
  ***********************

  --------------------------------------------------------------------------------------------------------------------
                                         Total      Evap     Infil   Surface    Drain    Initial     Final  Continuity
                                        Inflow      Loss      Loss   Outflow   Outflow   Storage   Storage       Error
  Subcatchment      LID Control             mm        mm        mm        mm        mm        mm        mm           %
  --------------------------------------------------------------------------------------------------------------------
  sub60             GreenRoof            56.76      0.00      0.00      0.00      0.00      7.05     63.92       -0.16
  sub61             GreenRoof            56.76      0.00      0.00      0.00      0.00      7.05     63.92       -0.16
  sub62             GreenRoof            56.76      0.00      0.00      0.00      0.00      7.05     63.92       -0.16
  sub63             GreenRoof            56.76      0.00      0.00      0.00      0.00      7.05     63.92       -0.16
  sub64             GreenRoof            56.76      0.00      0.00      0.00      0.00      7.05     63.92       -0.16
  sub65             GreenRoof            56.76      0.00      0.00      0.00      0.00      7.05     63.92       -0.16
  sub66             GreenRoof            56.76      0.00      0.00      0.00      0.00      7.05     63.92       -0.16
  sub67             GreenRoof            56.76      0.00      0.00      0.00      0.00      7.05     63.92       -0.16
  sub68             GreenRoof            56.76      0.00      0.00      0.00      0.00      7.05     63.92       -0.16
  sub69             GreenRoof            56.76      0.00      0.00      0.00      0.00      7.05     63.92       -0.16
  sub70             GreenRoof            56.76      0.00      0.00      0.00      0.00      7.05     63.92       -0.16
  sub71             GreenRoof            56.76      0.00      0.00      0.00      0.00      7.05     63.92       -0.16
  sub72             GreenRoof            56.76      0.00      0.00      0.00      0.00      7.05     63.92       -0.16
  
  ******************
  Node Depth Summary
  ******************
  
  ---------------------------------------------------------------------------------
                                 Average  Maximum  Maximum  Time of Max    Reported
                                   Depth    Depth      HGL   Occurrence   Max Depth
  Node                 Type       Meters   Meters   Meters  days hr:min      Meters
  ---------------------------------------------------------------------------------
  WS02001211           JUNCTION     0.60     0.64     5.48     0  03:24        0.64
  WS02001212           JUNCTION     0.34     0.38     5.45     0  03:24        0.38
  WS02001213           JUNCTION     0.53     0.65     5.41     0  03:23        0.65
  WS02003059           JUNCTION     0.59     0.72     5.40     0  03:23        0.72
  WS02003060           JUNCTION     0.30     0.45     5.38     0  03:22        0.45
  WS02003066           JUNCTION     0.16     0.30     5.85     0  03:21        0.30
  WS02003067           JUNCTION     0.43     0.70     6.02     0  03:21        0.70
  WS02003069           JUNCTION     0.33     0.51     5.10     0  03:23        0.51
  WS02003072           JUNCTION     0.40     0.58     4.95     0  03:23        0.58
  WS02003073           JUNCTION     0.23     0.35     4.41     0  03:23        0.35
  WS02004138           JUNCTION     0.13     0.14     7.39     0  00:29        0.14
  WS02004139           JUNCTION     0.54     0.58     5.49     0  03:25        0.58
  WS02004401           JUNCTION     0.52     0.85     6.85     0  03:05        0.85
  WS02004402           JUNCTION     0.55     0.88     6.84     0  03:08        0.88
  WS02004403           JUNCTION     0.57     0.89     6.82     0  03:04        0.89
  WS02004404           JUNCTION     0.65     0.96     6.81     0  03:04        0.96
  WS02004405           JUNCTION     0.65     0.96     6.81     0  03:04        0.96
  WS02004406           JUNCTION     0.66     0.96     6.79     0  03:04        0.96
  WS02004407           JUNCTION     0.14     0.30     6.61     0  03:16        0.30
  WS02004409           JUNCTION     0.30     0.67     6.44     0  03:19        0.67
  WS02004410           JUNCTION     0.33     0.68     6.40     0  03:19        0.68
  WS02004411           JUNCTION     0.36     0.69     6.37     0  03:19        0.69
  WS02004412           JUNCTION     0.38     0.70     6.34     0  03:20        0.70
  WS02004413           JUNCTION     0.54     0.86     6.33     0  03:20        0.86
  WS02006109           JUNCTION     0.58     1.14     7.76     0  02:48        0.99
  WS02006110           JUNCTION     0.59     1.17     7.76     0  02:48        0.94
  WS02006111           JUNCTION     0.14     0.29     6.99     0  02:44        0.29
  WS02006112           JUNCTION     0.67     1.08     6.96     0  02:52        1.05
  WS02006113           JUNCTION     0.22     0.46     7.35     0  02:53        0.46
  WS02006115           JUNCTION     0.40     0.75     6.89     0  03:02        0.75
  WS02006116           JUNCTION     0.49     0.83     6.87     0  03:02        0.83
  WS02006228           JUNCTION     0.57     1.28     7.94     0  02:48        1.06
  WS02006229           JUNCTION     0.55     1.36     8.06     0  02:48        1.07
  WS02006230           JUNCTION     0.55     1.62     8.36     0  02:48        1.20
  WS02006231           JUNCTION     0.36     1.27     8.39     0  02:48        0.93
  WS02006232           JUNCTION     0.48     1.91     8.95     0  02:13        1.11
  WS02006234           JUNCTION     0.41     1.53     8.69     0  02:25        1.30
  WS02006235           JUNCTION     0.46     1.52     8.68     0  02:48        1.52
  WS02006238           JUNCTION     0.48     1.56     8.70     0  02:48        1.56
  WS02006239           JUNCTION     0.44     1.51     8.72     0  02:35        1.48
  WS02006240           JUNCTION     0.42     1.48     8.78     0  02:35        1.37
  WS02006242           JUNCTION     0.47     1.55     8.82     0  02:13        1.36
  WS02006243           JUNCTION     0.40     1.39     8.81     0  02:16        1.17
  WS02006245           JUNCTION     0.40     1.32     8.80     0  02:16        1.13
  WS02006247           JUNCTION     0.41     1.27     8.77     0  02:16        1.15
  WS02006248           JUNCTION     0.39     1.10     8.69     0  02:16        1.09
  WS02006249           JUNCTION     0.41     1.09     8.69     0  02:14        1.09
  WS02006251           JUNCTION     0.41     1.93     9.60     0  02:14        1.14
  WS02006252           JUNCTION     0.27     1.50     9.74     0  00:00        0.68
  WS02006256           JUNCTION     1.10     2.35     9.28     0  00:00        2.35
  WSF200               JUNCTION     0.13     0.31     5.54     0  03:22        0.31
  YS02001580           JUNCTION     0.09     1.00     9.54     0  02:16        0.83
  YS02001583           JUNCTION     0.12     1.14     9.64     0  02:16        0.82
  YS02001586           JUNCTION     0.21     1.13     9.30     0  02:16        1.13
  YS02001590           JUNCTION     0.32     1.39     9.25     0  02:17        1.39
  YS02001593           JUNCTION     0.24     1.32     9.18     0  02:16        1.31
  YS02001596           JUNCTION     0.35     1.68     9.10     0  02:16        1.67
  YS02001600           JUNCTION     0.44     1.87     9.00     0  02:16        1.87
  YS02001601           JUNCTION     0.64     2.06     8.90     0  02:16        2.06
  YS02001602           JUNCTION     0.55     1.87     8.77     0  02:16        1.87
  YS02001605           JUNCTION     0.50     1.78     8.68     0  02:29        1.78
  YS02001607           JUNCTION     0.48     1.65     8.49     0  02:30        1.64
  YS02001610           JUNCTION     0.52     1.68     8.48     0  02:19        1.68
  YS02001613           JUNCTION     0.48     1.66     8.50     0  02:24        1.66
  YS02001616           JUNCTION     0.41     1.61     8.52     0  02:23        1.61
  YS02001619           JUNCTION     0.39     1.61     8.54     0  02:23        1.61
  YS02001622           JUNCTION     0.38     1.59     8.50     0  02:23        1.59
  YS02001625           JUNCTION     0.63     1.78     8.38     0  02:19        1.78
  YS02001629           JUNCTION     0.52     1.85     8.40     0  02:20        1.85
  YS02001633           JUNCTION     0.59     2.03     8.49     0  02:23        2.03
  YS02001641           JUNCTION     0.57     1.97     8.41     0  02:21        1.95
  YS02001644           JUNCTION     0.56     1.92     8.35     0  02:21        1.92
  YS02001647           JUNCTION     0.34     1.75     8.36     0  02:24        1.73
  YS02001649           JUNCTION     0.39     1.96     8.35     0  02:24        1.93
  YS02001652           JUNCTION     0.27     1.82     8.42     0  02:24        1.76
  YS02001655           JUNCTION     0.20     1.89     8.74     0  02:20        1.52
  YS02001658           JUNCTION     0.14     1.82     8.96     0  02:21        1.24
  YS02001661           JUNCTION     0.16     1.23     8.63     0  02:24        1.02
  YS02001664           JUNCTION     0.07     0.50     8.43     0  02:24        0.43
  YS02001745           JUNCTION     0.08     0.75     8.26     0  02:25        0.75
  YS02001748           JUNCTION     0.13     1.42     8.50     0  02:22        1.18
  YS02001751           JUNCTION     0.17     1.47     8.35     0  02:22        1.37
  YS02001754           JUNCTION     0.23     1.67     8.28     0  02:22        1.62
  YS02001757           JUNCTION     0.40     1.99     8.25     0  02:24        1.96
  YS02001759           JUNCTION     0.34     1.97     8.33     0  02:24        1.95
  YS02001762           JUNCTION     0.33     1.94     8.34     0  02:24        1.93
  YS02001765           JUNCTION     0.31     1.91     8.36     0  02:24        1.90
  YS02001767           JUNCTION     0.31     1.89     8.38     0  02:23        1.89
  YS02001770           JUNCTION     0.32     1.95     8.44     0  02:19        1.93
  YS02001774           JUNCTION     0.38     2.05     8.47     0  02:19        1.97
  YS02001779           JUNCTION     0.21     1.68     8.37     0  02:19        1.68
  YS02001783           JUNCTION     0.28     1.26     7.40     0  02:21        1.23
  YS02001784           JUNCTION     0.29     1.14     7.21     0  02:21        1.10
  YS02001786           JUNCTION     0.24     0.89     6.92     0  02:21        0.87
  YS02001788           JUNCTION     0.18     0.62     6.60     0  02:23        0.62
  YS02001790           JUNCTION     0.21     0.72     6.37     0  02:23        0.72
  YS02001791           JUNCTION     0.13     0.44     5.91     0  02:24        0.43
  YS02001793           JUNCTION     0.07     0.29     5.13     0  02:25        0.28
  YS02001882           JUNCTION     0.33     1.70     8.41     0  02:21        1.65
  YS02001884           JUNCTION     0.42     1.78     8.40     0  02:21        1.78
  YS02001887           JUNCTION     0.50     1.85     8.39     0  02:23        1.85
  YS02001890           JUNCTION     0.53     1.81     8.32     0  02:21        1.81
  YS02001895           JUNCTION     0.30     1.58     8.33     0  02:21        1.56
  YS02001898           JUNCTION     0.31     1.58     8.32     0  02:21        1.56
  YS02001901           JUNCTION     0.42     1.69     8.30     0  02:21        1.67
  YS02001904           JUNCTION     0.40     1.64     8.27     0  02:21        1.64
  YS02001907           JUNCTION     0.72     1.96     8.25     0  02:21        1.96
  YS02001910           JUNCTION     0.52     1.99     8.49     0  02:22        1.99
  YS02001915           JUNCTION     0.33     1.92     8.64     0  02:22        1.92
  YS02001918           JUNCTION     0.17     1.81     8.88     0  02:22        1.81
  YS02001920           JUNCTION     0.25     2.14     9.15     0  02:22        2.14
  YS02001923           JUNCTION     0.12     2.03     9.29     0  02:22        2.03
  YS02001926           JUNCTION     0.17     1.90     9.35     0  02:22        1.90
  YS02001929           JUNCTION     0.09     1.78     9.47     0  02:22        1.78
  YS02006553           JUNCTION     0.72     1.98     8.27     0  02:23        1.98
  YS02006556           JUNCTION     0.69     1.96     8.27     0  02:23        1.96
  YS02006558           JUNCTION     0.73     2.02     8.29     0  02:23        2.02
  YS02006561           JUNCTION     0.17     0.96     7.62     0  02:21        0.89
  YS02163301           JUNCTION     0.54     1.94     8.46     0  02:23        1.94
  YS02163601           JUNCTION     0.62     2.07     8.46     0  02:21        2.02
  YS02164001           JUNCTION     0.55     1.98     8.44     0  02:21        1.94
  CC-1                 OUTFALL      0.00     0.00     0.00     0  00:00        0.00
  CC-2                 OUTFALL      0.00     0.00     0.00     0  00:00        0.00
  JK-1                 OUTFALL      0.00     0.00     0.00     0  00:00        0.00
  JK-2                 OUTFALL      0.00     0.00     0.00     0  00:00        0.00
  WSC                  OUTFALL      0.23     0.35     1.02     0  03:24        0.35
  CC-storage           STORAGE      0.84     1.63     7.13     0  02:41        1.63
  JK-storage           STORAGE      2.88     4.23     5.03     0  02:21        4.22
  XR-storage           STORAGE      7.83     9.26     7.26     0  08:00        9.26
  
  
  *******************
  Node Inflow Summary
  *******************
  
  -------------------------------------------------------------------------------------------------
                                  Maximum  Maximum                  Lateral       Total        Flow
                                  Lateral    Total  Time of Max      Inflow      Inflow     Balance
                                   Inflow   Inflow   Occurrence      Volume      Volume       Error
  Node                 Type           LPS      LPS  days hr:min    10^6 ltr    10^6 ltr     Percent
  -------------------------------------------------------------------------------------------------
  WS02001211           JUNCTION      7.35   200.45     0  03:28       0.212        5.44       0.611
  WS02001212           JUNCTION      0.00   202.63     0  03:28           0        5.41       0.290
  WS02001213           JUNCTION      0.00   204.34     0  03:29           0        5.39       0.331
  WS02003059           JUNCTION      0.00   208.42     0  03:49           0        5.38       0.592
  WS02003060           JUNCTION     16.53   750.37     0  03:22       0.476        9.02       0.157
  WS02003066           JUNCTION      0.00   536.18     0  03:21           0         3.2       0.039
  WS02003067           JUNCTION      0.00   536.18     0  03:21           0         3.2       0.127
  WS02003069           JUNCTION      0.32   750.69     0  03:22     0.00922        9.01       0.165
  WS02003072           JUNCTION      0.00   750.69     0  03:23           0        8.99       0.226
  WS02003073           JUNCTION      1.82   752.51     0  03:23      0.0524        9.03       0.233
  WS02004138           JUNCTION      0.00   380.00     0  00:00           0        5.25       0.053
  WS02004139           JUNCTION      0.32   191.16     0  00:29     0.00924        5.26       0.509
  WS02004401           JUNCTION      0.00   537.26     0  02:32           0         3.3       0.302
  WS02004402           JUNCTION      0.00   536.43     0  03:05           0        3.29       0.308
  WS02004403           JUNCTION      0.00   536.55     0  03:04           0        3.28       0.302
  WS02004404           JUNCTION      0.16   536.30     0  03:03     0.00467        3.27       0.252
  WS02004405           JUNCTION      0.04   536.35     0  03:04      0.0011        3.27       0.377
  WS02004406           JUNCTION      0.00   536.71     0  03:04           0        3.25       0.629
  WS02004407           JUNCTION      0.00   536.28     0  03:10           0        3.23       0.030
  WS02004409           JUNCTION      0.00   536.24     0  03:16           0        3.23       0.074
  WS02004410           JUNCTION      0.00   536.21     0  03:19           0        3.23       0.125
  WS02004411           JUNCTION      0.00   536.20     0  03:19           0        3.23       0.163
  WS02004412           JUNCTION      0.00   536.19     0  03:19           0        3.22       0.222
  WS02004413           JUNCTION      0.00   536.19     0  03:20           0        3.21       0.398
  WS02006109           JUNCTION      1.23   560.87     0  02:48      0.0354        3.34       0.245
  WS02006110           JUNCTION      0.00   560.85     0  02:48           0        3.33       0.190
  WS02006111           JUNCTION      0.00   561.84     0  02:24           0        3.33       0.026
  WS02006112           JUNCTION      0.00   542.92     0  02:44           0        3.33       0.520
  WS02006113           JUNCTION      0.00   569.27     0  02:52           0        3.33       0.043
  WS02006115           JUNCTION      0.00   554.71     0  02:49           0        3.31       0.189
  WS02006116           JUNCTION      0.00   541.57     0  02:54           0         3.3       0.142
  WS02006228           JUNCTION      0.00   558.81     0  02:48           0        3.31       0.101
  WS02006229           JUNCTION      0.00   558.48     0  02:48           0        3.32       0.144
  WS02006230           JUNCTION     10.28   591.76     0  02:16       0.296        3.32       0.139
  WS02006231           JUNCTION      0.00   584.39     0  02:48           0        3.02      -0.082
  WS02006232           JUNCTION      0.00   582.01     0  02:48           0        3.03       0.324
  WS02006234           JUNCTION      0.00   573.39     0  02:41           0        3.02      -0.263
  WS02006235           JUNCTION      0.00   567.20     0  02:41           0        3.08       0.263
  WS02006238           JUNCTION      0.00   424.86     0  02:15           0        2.19      -0.153
  WS02006239           JUNCTION      0.00   424.65     0  02:15           0        2.16      -0.062
  WS02006240           JUNCTION      0.00   422.04     0  02:15           0        2.13      -0.079
  WS02006242           JUNCTION      0.00   421.70     0  02:15           0        2.11      -0.160
  WS02006243           JUNCTION      0.00   421.19     0  02:15           0         2.1      -0.057
  WS02006245           JUNCTION      0.00   420.56     0  02:15           0         2.1       0.469
  WS02006247           JUNCTION      0.00   420.41     0  02:15           0         2.1      -0.029
  WS02006248           JUNCTION      0.00   419.75     0  02:15           0         2.1      -0.099
  WS02006249           JUNCTION      0.00   458.97     0  00:00           0        2.34       0.509
  WS02006251           JUNCTION      0.08   418.80     0  02:14     0.00222        2.34       0.004
  WS02006252           JUNCTION      0.00   400.00     0  00:00           0        2.33      -0.281
  WS02006256           JUNCTION      0.00   304.17     0  02:00           0        1.34      -0.645
  WSF200               JUNCTION      0.00   536.18     0  03:22           0         3.2       0.016
  YS02001580           JUNCTION      0.00    79.53     0  02:16           0     0.00378      -0.723
  YS02001583           JUNCTION      0.00   149.09     0  02:16           0      0.0151      -3.706
  YS02001586           JUNCTION    614.99   615.01     0  02:26        1.19        1.21       0.095
  YS02001590           JUNCTION      0.00   317.88     0  02:37           0        1.03      -0.038
  YS02001593           JUNCTION      0.00   317.98     0  02:24           0        1.03       0.014
  YS02001596           JUNCTION      0.00   317.94     0  02:32           0        1.03      -0.000
  YS02001600           JUNCTION      0.00   317.96     0  02:30           0        1.03       0.025
  YS02001601           JUNCTION   1054.85  1372.16     0  02:25        1.61        2.64       0.025
  YS02001602           JUNCTION      0.00   503.03     0  02:16           0        1.85       0.019
  YS02001605           JUNCTION      0.00   503.08     0  02:16           0        1.78       0.023
  YS02001607           JUNCTION      0.00   502.18     0  02:16           0        1.78       0.104
  YS02001610           JUNCTION      0.00   525.51     0  02:26           0        1.83       0.124
  YS02001613           JUNCTION      0.00   500.61     0  02:15           0        1.56       0.094
  YS02001616           JUNCTION      0.00   502.74     0  02:15           0        1.56       0.022
  YS02001619           JUNCTION   1067.47  1067.47     0  02:26        1.85        3.35      -0.007
  YS02001622           JUNCTION      0.00   913.91     0  02:19           0        3.29      -0.004
  YS02001625           JUNCTION      0.00  1164.09     0  02:25           0        3.37       0.273
  YS02001629           JUNCTION      0.00   913.59     0  02:19           0         2.8       0.019
  YS02001633           JUNCTION    816.58  1316.41     0  02:18        1.22        3.92       0.088
  YS02001641           JUNCTION      0.00  1312.19     0  02:18           0        3.83       0.075
  YS02001644           JUNCTION    700.88  1662.17     0  02:19       0.997        4.82       0.072
  YS02001647           JUNCTION      0.00  1663.45     0  02:19           0        4.66       0.011
  YS02001649           JUNCTION      0.00  1866.50     0  02:18           0        5.62       0.002
  YS02001652           JUNCTION      0.00   752.08     0  02:25           0       0.955      -0.090
  YS02001655           JUNCTION      0.15   751.68     0  02:25     0.00443       0.955       0.032
  YS02001658           JUNCTION      0.00   750.33     0  02:25           0        0.95      -0.037
  YS02001661           JUNCTION      0.00   877.37     0  02:24           0       0.949      -0.019
  YS02001664           JUNCTION    717.23   717.23     0  02:25       0.949       0.949      -0.006
  YS02001745           JUNCTION    428.80   428.80     0  02:25       0.546       0.546       0.214
  YS02001748           JUNCTION      0.04   515.37     0  02:22      0.0013       0.546      -0.360
  YS02001751           JUNCTION      0.01   442.59     0  02:25    0.000317       0.555       0.176
  YS02001754           JUNCTION      0.26   443.50     0  02:25     0.00749       0.572      -0.207
  YS02001757           JUNCTION      0.00  3062.07     0  02:23           0        8.13       0.017
  YS02001759           JUNCTION    626.81  1250.80     0  02:24       0.798        1.94      -0.008
  YS02001762           JUNCTION      0.00   681.08     0  02:28           0        1.14       0.007
  YS02001765           JUNCTION      0.00   680.43     0  02:28           0        1.14       0.018
  YS02001767           JUNCTION      0.54   679.77     0  02:23      0.0154        1.14       0.026
  YS02001770           JUNCTION    857.94   857.94     0  02:25        1.18        1.22      -0.024
  YS02001774           JUNCTION      0.00   333.81     0  02:19           0       0.106       1.011
  YS02001779           JUNCTION      0.01   340.03     0  02:19    0.000144      0.0635      -1.155
  YS02001783           JUNCTION      0.00  1158.39     0  02:24           0        3.05       0.007
  YS02001784           JUNCTION      1.06  1159.90     0  02:24      0.0305        3.08       0.017
  YS02001786           JUNCTION      0.06  1159.55     0  02:24     0.00162        3.08       0.021
  YS02001788           JUNCTION      0.07  1160.02     0  02:25     0.00204        3.08       0.009
  YS02001790           JUNCTION      0.15  1169.07     0  02:25     0.00446        3.08       0.014
  YS02001791           JUNCTION      0.00  1290.27     0  02:23           0        3.08      -0.015
  YS02001793           JUNCTION      0.00  1253.51     0  02:24           0        3.08       0.006
  YS02001882           JUNCTION      0.00    37.84     0  02:19           0      0.0121       4.071
  YS02001884           JUNCTION      0.00    72.63     0  02:18           0      0.0478       5.126
  YS02001887           JUNCTION    661.11   663.57     0  02:25       0.828       0.862       0.500
  YS02001890           JUNCTION      0.00   663.56     0  02:25           0       0.821       0.609
  YS02001895           JUNCTION      0.00   515.80     0  02:26           0        0.79       0.154
  YS02001898           JUNCTION      0.00   515.88     0  02:26           0       0.788       0.045
  YS02001901           JUNCTION      0.00   516.03     0  02:25           0       0.791       0.401
  YS02001904           JUNCTION      0.00   516.41     0  02:26           0       0.795       0.338
  YS02001907           JUNCTION      0.00  1630.13     0  02:25           0        2.46       0.733
  YS02001910           JUNCTION      0.00  1114.79     0  02:25           0        1.67       0.429
  YS02001915           JUNCTION    706.61  1113.93     0  02:25        1.02         1.7       0.091
  YS02001918           JUNCTION      0.00   455.21     0  02:22           0       0.714      -0.018
  YS02001920           JUNCTION      2.87   454.93     0  02:22      0.0827       0.699       0.135
  YS02001923           JUNCTION      0.04   425.59     0  02:22     0.00109       0.601      -0.208
  YS02001926           JUNCTION      0.05   431.95     0  02:21      0.0015       0.581      -0.109
  YS02001929           JUNCTION    362.35   362.35     0  02:25       0.571       0.572      -0.096
  YS02006553           JUNCTION      0.00   798.92     0  02:33           0        1.94       0.608
  YS02006556           JUNCTION      0.00   799.33     0  02:33           0        1.95       0.408
  YS02006558           JUNCTION    856.72  1166.54     0  02:21        1.15        3.07       0.117
  YS02006561           JUNCTION      0.00  1164.98     0  02:21           0        3.05      -0.004
  YS02163301           JUNCTION      0.00   914.69     0  02:16           0        2.79       0.060
  YS02163601           JUNCTION      0.11  1315.50     0  02:18     0.00317        3.83       0.130
  YS02164001           JUNCTION      0.00  1315.20     0  02:18           0        3.83       0.066
  CC-1                 OUTFALL       0.00   683.00     0  00:00           0        3.39       0.000
  CC-2                 OUTFALL       0.00   683.00     0  00:00           0        3.14       0.000
  JK-1                 OUTFALL       0.00  1000.00     0  00:00           0        1.69       0.000
  JK-2                 OUTFALL       0.00  1000.00     0  00:00           0      0.0484       0.000
  WSC                  OUTFALL       0.00   752.51     0  03:24           0           9       0.000
  CC-storage           STORAGE       0.00  3063.32     0  02:23           0        10.3      -0.223
  JK-storage           STORAGE       0.00  1203.18     0  02:27           0        3.23       0.020
  XR-storage           STORAGE     200.00   200.00     0  00:00        5.76        6.36       0.001
  
  
  **********************
  Node Surcharge Summary
  **********************
  
  Surcharging occurs when water rises above the top of the highest conduit.
  ---------------------------------------------------------------------
                                               Max. Height   Min. Depth
                                   Hours       Above Crown    Below Rim
  Node                 Type      Surcharged         Meters       Meters
  ---------------------------------------------------------------------
  WS02006109           JUNCTION        1.36          0.321        1.499
  WS02006110           JUNCTION        0.78          0.263        1.587
  WS02006112           JUNCTION        0.88          0.081        1.599
  WS02006228           JUNCTION        1.35          0.454        1.746
  WS02006229           JUNCTION        1.38          0.565        1.885
  WS02006230           JUNCTION        0.78          0.538        1.032
  WS02006231           JUNCTION        0.90          0.559        0.971
  WS02006232           JUNCTION        1.43          1.207        0.273
  WS02006234           JUNCTION        1.07          0.813        0.427
  WS02006235           JUNCTION        1.34          0.806        0.484
  WS02006238           JUNCTION        1.39          0.841        0.589
  WS02006239           JUNCTION        1.34          0.774        0.516
  WS02006240           JUNCTION        1.35          0.772        0.618
  WS02006242           JUNCTION        1.36          0.820        0.000
  WS02006243           JUNCTION        1.35          0.680        0.090
  WS02006245           JUNCTION        1.34          0.610        0.240
  WS02006247           JUNCTION        1.34          0.560        0.200
  WS02006248           JUNCTION        1.34          0.380        0.000
  WS02006249           JUNCTION        1.33          0.390        0.000
  WS02006251           JUNCTION        0.96          0.898        0.282
  WS02006252           JUNCTION        1.51          1.100        0.000
  WS02006256           JUNCTION        3.66          2.050        0.000
  YS02001580           JUNCTION        0.41          0.398        0.052
  YS02001583           JUNCTION        0.42          0.500        0.000
  YS02001586           JUNCTION        0.50          0.510        0.000
  YS02001590           JUNCTION        0.57          0.738        0.012
  YS02001593           JUNCTION        0.57          0.699        0.141
  YS02001596           JUNCTION        0.67          0.951        0.119
  YS02001600           JUNCTION        0.81          1.190        0.000
  YS02001601           JUNCTION        1.13          1.440        0.000
  YS02001602           JUNCTION        1.02          1.270        0.000
  YS02001605           JUNCTION        0.98          1.180        0.000
  YS02001607           JUNCTION        0.55          0.645        0.035
  YS02001610           JUNCTION        0.57          0.680        0.000
  YS02001613           JUNCTION        0.54          0.657        0.043
  YS02001616           JUNCTION        0.50          0.610        0.000
  YS02001619           JUNCTION        0.50          0.610        0.000
  YS02001622           JUNCTION        0.49          0.592        0.028
  YS02001625           JUNCTION        0.65          0.780        0.000
  YS02001629           JUNCTION        0.46          0.470        0.000
  YS02001633           JUNCTION        0.67          1.014        0.046
  YS02001641           JUNCTION        0.61          0.971        0.129
  YS02001644           JUNCTION        0.58          0.920        0.000
  YS02001647           JUNCTION        0.41          0.747        0.153
  YS02001649           JUNCTION        0.50          0.960        0.090
  YS02001652           JUNCTION        0.36          0.794        0.336
  YS02001655           JUNCTION        0.26          0.894        0.306
  YS02001658           JUNCTION        0.14          0.819        0.481
  YS02001661           JUNCTION        0.01          0.157        1.233
  YS02001748           JUNCTION        0.09          0.342        0.848
  YS02001751           JUNCTION        0.19          0.474        0.726
  YS02001754           JUNCTION        0.29          0.620        0.530
  YS02001757           JUNCTION        0.56          0.989        0.221
  YS02001759           JUNCTION        0.48          0.966        0.244
  YS02001762           JUNCTION        0.45          0.943        0.207
  YS02001765           JUNCTION        0.42          0.907        0.193
  YS02001767           JUNCTION        0.40          0.889        0.141
  YS02001770           JUNCTION        0.37          0.920        0.000
  YS02001774           JUNCTION        0.44          1.050        0.000
  YS02001779           JUNCTION        0.29          0.680        0.000
  YS02001783           JUNCTION        0.35          0.464        1.136
  YS02001784           JUNCTION        0.33          0.338        1.152
  YS02001786           JUNCTION        0.24          0.093        1.337
  YS02001882           JUNCTION        0.31          0.699        0.131
  YS02001884           JUNCTION        0.32          0.724        0.146
  YS02001887           JUNCTION        0.34          0.803        0.147
  YS02001890           JUNCTION        0.35          0.760        0.000
  YS02001895           JUNCTION        0.30          0.579        0.171
  YS02001898           JUNCTION        0.29          0.554        0.186
  YS02001901           JUNCTION        0.33          0.689        0.181
  YS02001904           JUNCTION        0.32          0.643        0.207
  YS02001907           JUNCTION        0.54          0.950        0.000
  YS02001910           JUNCTION        0.38          0.988        0.112
  YS02001915           JUNCTION        0.30          0.925        0.075
  YS02001918           JUNCTION        0.23          0.810        0.000
  YS02001920           JUNCTION        0.24          1.140        0.000
  YS02001923           JUNCTION        0.02          0.820        0.000
  YS02001926           JUNCTION        0.03          0.900        0.000
  YS02001929           JUNCTION        0.01          0.780        0.000
  YS02006553           JUNCTION        0.56          0.983        0.207
  YS02006556           JUNCTION        0.46          0.922        0.428
  YS02006558           JUNCTION        0.45          0.920        0.480
  YS02006561           JUNCTION        0.20          0.161        0.989
  YS02163301           JUNCTION        0.65          0.940        0.090
  YS02163601           JUNCTION        0.70          1.066        0.014
  YS02164001           JUNCTION        0.62          0.985        0.115
  
  
  *********************
  Node Flooding Summary
  *********************
  
  Flooding refers to all water that overflows a node, whether it ponds or not.
  --------------------------------------------------------------------------
                                                             Total   Maximum
                                 Maximum   Time of Max       Flood    Ponded
                        Hours       Rate    Occurrence      Volume     Depth
  Node                 Flooded       LPS   days hr:min    10^6 ltr    Meters
  --------------------------------------------------------------------------
  WS02006242              0.01     74.11      0  02:13       0.000     0.000
  WS02006248              0.01     27.03      0  02:35       0.000     0.000
  WS02006249              0.94    129.21      0  02:14       0.226     0.000
  WS02006252              0.01    245.63      0  00:00       0.000     0.000
  WS02006256              1.24    302.07      0  02:00       0.421     0.000
  YS02001583              0.01     81.84      0  02:16       0.000     0.000
  YS02001586              0.32    297.33      0  02:26       0.165     0.000
  YS02001600              0.01      1.27      0  02:16       0.000     0.000
  YS02001601              0.45    974.19      0  02:25       0.787     0.000
  YS02001602              0.36     62.15      0  02:23       0.073     0.000
  YS02001605              0.01      0.19      0  02:29       0.000     0.000
  YS02001610              0.32    525.21      0  02:26       0.327     0.000
  YS02001616              0.01      0.91      0  02:23       0.000     0.000
  YS02001625              0.29   1163.94      0  02:25       0.653     0.000
  YS02001629              0.07     90.42      0  02:23       0.015     0.000
  YS02001644              0.12    616.55      0  02:25       0.148     0.000
  YS02001770              0.01     89.53      0  02:19       0.000     0.000
  YS02001774              0.01      4.79      0  02:19       0.000     0.000
  YS02001779              0.10    251.67      0  02:25       0.047     0.000
  YS02001890              0.09    150.86      0  02:25       0.027     0.000
  YS02001907              0.19   1295.48      0  02:25       0.503     0.000
  YS02001918              0.01    125.27      0  02:22       0.001     0.000
  YS02001920              0.01     51.95      0  02:22       0.000     0.000
  YS02001923              0.01     86.88      0  02:22       0.000     0.000
  YS02001926              0.01     70.13      0  02:22       0.000     0.000
  YS02001929              0.01    237.89      0  02:22       0.001     0.000
  
  
  **********************
  Storage Volume Summary
  **********************
  
  ------------------------------------------------------------------------------------------------
                         Average    Avg   Evap  Exfil     Maximum    Max    Time of Max    Maximum
                          Volume   Pcnt   Pcnt   Pcnt      Volume   Pcnt     Occurrence    Outflow
  Storage Unit           1000 m³   Full   Loss   Loss     1000 m³   Full    days hr:min        LPS
  ------------------------------------------------------------------------------------------------
  CC-storage               2.350   36.7    0.0    0.0       4.547   70.9       0  02:41    1783.53
  JK-storage               0.145   49.7    0.0    0.0       0.213   73.0       0  02:21    2300.00
  XR-storage               0.939   65.2    0.0    0.0       1.111   77.2       0  08:00     380.00
  
  
  ***********************
  Outfall Loading Summary
  ***********************
  
  -----------------------------------------------------------
                         Flow       Avg       Max       Total
                         Freq      Flow      Flow      Volume
  Outfall Node           Pcnt       LPS       LPS    10^6 ltr
  -----------------------------------------------------------
  CC-1                  29.25    683.00    683.00       3.387
  CC-2                  26.77    683.00    683.00       3.138
  JK-1                  12.88   1000.00   1000.00       1.689
  JK-2                   0.24   1000.00   1000.00       0.048
  WSC                   99.93    374.66    752.51       9.004
  -----------------------------------------------------------
  System                33.81   3740.66   3366.23      17.268
  
  
  ********************
  Link Flow Summary
  ********************
  
  -----------------------------------------------------------------------------
                                 Maximum  Time of Max   Maximum    Max/    Max/
                                  |Flow|   Occurrence   |Veloc|    Full    Full
  Link                 Type          LPS  days hr:min     m/sec    Flow   Depth
  -----------------------------------------------------------------------------
  1                    CONDUIT    752.51     0  03:24      3.08    0.26    0.35
  WS02001211WS02001212 CONDUIT    202.63     0  03:28      0.54    0.15    0.51
  WS02001212WS02001213 CONDUIT    204.34     0  03:29      1.04    0.32    0.36
  WS02001213WS02003059 CONDUIT    208.42     0  03:49      0.47    0.34    0.67
  WS02003059WS02003060 CONDUIT    215.22     0  03:49      0.67    0.14    0.58
  WS02003060WS02003069 CONDUIT    750.37     0  03:22      1.77    0.29    0.40
  WS02003066WSF200     CONDUIT    536.18     0  03:22      2.73    0.09    0.23
  WS02003067WS02003066 CONDUIT    536.18     0  03:21      1.21    0.17    0.42
  WS02003069WS02003072 CONDUIT    750.69     0  03:23      1.51    0.36    0.45
  WS02003072WS02003073 CONDUIT    750.69     0  03:23      1.60    1.62    0.43
  WS02004138WS02004139 CONDUIT    190.84     0  00:29      2.17    0.04    0.33
  WS02004139WS02001211 CONDUIT    193.11     0  03:28      0.54    0.24    0.47
  WS02004401WS02004402 CONDUIT    536.43     0  03:05      0.97    0.64    0.86
  WS02004402WS02004403 CONDUIT    536.55     0  03:04      0.97    0.77    0.88
  WS02004403WS02004404 CONDUIT    536.14     0  03:03      0.92    0.39    0.93
  WS02004404WS02004405 CONDUIT    536.31     0  03:04      1.08    5.25    0.96
  WS02004405WS02004406 CONDUIT    536.71     0  03:04      0.99    1.06    0.96
  WS02004406WS02004407 CONDUIT    536.28     0  03:10      1.04    0.24    0.63
  WS02004407WS02004409 CONDUIT    536.24     0  03:16      1.49    0.19    0.48
  WS02004409WS02004410 CONDUIT    536.21     0  03:19      0.98    0.69    0.67
  WS02004410WS02004411 CONDUIT    536.20     0  03:19      0.94    0.73    0.69
  WS02004411WS02004412 CONDUIT    536.19     0  03:19      0.92    0.76    0.69
  WS02004412WS02004413 CONDUIT    536.19     0  03:20      0.82    0.36    0.78
  WS02004413WS02003067 CONDUIT    536.18     0  03:21      1.11    0.23    0.59
  WS02006109WS02006110 CONDUIT    560.85     0  02:48      1.12    1.08    1.00
  WS02006110WS02006113 CONDUIT    569.27     0  02:52      1.37    0.52    0.79
  WS02006111WS02006112 CONDUIT    542.92     0  02:44      1.82    0.26    0.67
  WS02006112WS02006115 CONDUIT    554.71     0  02:49      0.79    0.33    0.87
  WS02006113WS02006111 CONDUIT    561.84     0  02:24      2.47    0.67    0.46
  WS02006115WS02006116 CONDUIT    541.57     0  02:54      0.97    0.70    0.76
  WS02006116WS02004401 CONDUIT    537.26     0  02:32      0.98    0.74    0.84
  WS02006228WS02006109 CONDUIT    559.64     0  02:48      1.11    2.45    1.00
  WS02006229WS02006228 CONDUIT    558.81     0  02:48      1.15    1.85    1.00
  WS02006230WS02006229 CONDUIT    558.48     0  02:48      1.45   12.43    1.00
  WS02006231WS02006230 CONDUIT    581.48     0  02:16      1.58    8.82    1.00
  WS02006232WS02006231 CONDUIT    584.39     0  02:48      1.53    1.22    1.00
  WS02006234WS02006232 CONDUIT    582.01     0  02:48      1.51    1.18    1.00
  WS02006235WS02006234 CONDUIT    573.39     0  02:41      1.49    6.05    1.00
  WS02006238WS02006235 CONDUIT    425.01     0  02:35      1.57    0.95    1.00
  WS02006239WS02006238 CONDUIT    424.86     0  02:15      1.11    1.36    1.00
  WS02006240WS02006239 CONDUIT    424.65     0  02:15      1.24    1.34    1.00
  WS02006242WS02006240 CONDUIT    422.04     0  02:15      1.12    1.68    1.00
  WS02006243WS02006242 CONDUIT    421.70     0  02:15      1.39    0.90    1.00
  WS02006245WS02006243 CONDUIT    421.19     0  02:15      1.45    1.25    1.00
  WS02006247WS02006245 CONDUIT    420.56     0  02:15      1.44    3.33    1.00
  WS02006248WS02006247 CONDUIT    420.41     0  02:15      1.45    0.92    1.00
  WS02006249WS02006248 CONDUIT    419.75     0  02:15      1.37    2.30    1.00
  WS02006251WS02006249 CONDUIT    458.97     0  00:00      1.99    1.32    1.00
  WS02006252WS02006251 CONDUIT    418.73     0  02:14     25.11    1.54    1.00
  WS02006256WS02006235 CONDUIT    289.22     0  01:59      4.23    3.06    1.00
  WSF200WS02003060     CONDUIT    536.18     0  03:22      1.75    0.12    0.32
  YS02001580YS02001583 CONDUIT     79.53     0  02:16      0.59    0.31    1.00
  YS02001583YS02001586 CONDUIT    149.09     0  02:16      0.62    0.23    1.00
  YS02001586YS02001590 CONDUIT    317.88     0  02:37      1.26    0.56    1.00
  YS02001590YS02001593 CONDUIT    317.98     0  02:24      1.12    2.00    1.00
  YS02001593YS02001596 CONDUIT    317.94     0  02:32      1.75    0.50    1.00
  YS02001596YS02001600 CONDUIT    317.96     0  02:30      1.25    0.62    1.00
  YS02001600YS02001601 CONDUIT    317.88     0  02:23      1.12    0.55    1.00
  YS02001601YS02001602 CONDUIT    503.03     0  02:16      1.78    1.82    1.00
  YS02001602YS02001605 CONDUIT    503.08     0  02:16      1.78   10.65    1.00
  YS02001605YS02001607 CONDUIT    502.18     0  02:16      1.78    2.75    1.00
  YS02001607YS02001610 CONDUIT    499.69     0  02:15      0.64    0.48    1.00
  YS02001610YS02001613 CONDUIT    500.61     0  02:15      0.64    0.58    1.00
  YS02001613YS02001616 CONDUIT    502.74     0  02:15      0.65    0.43    1.00
  YS02001616YS02001619 CONDUIT    498.43     0  02:16      0.66    0.87    1.00
  YS02001619YS02001622 CONDUIT    913.91     0  02:19      1.17    1.35    1.00
  YS02001622YS02001625 CONDUIT    914.05     0  02:19      1.16    0.49    1.00
  YS02001625YS02001629 CONDUIT    913.59     0  02:19      1.16    0.43    1.00
  YS02001629YS02163301 CONDUIT    914.69     0  02:16      1.16    1.13    1.00
  YS02001633YS02163601 CONDUIT   1315.39     0  02:18      1.67    1.38    1.00
  YS02001641YS02001644 CONDUIT   1312.39     0  02:18      1.67    4.24    1.00
  YS02001644YS02001647 CONDUIT   1663.45     0  02:19      2.15    0.98    1.00
  YS02001647YS02001649 CONDUIT   1676.63     0  02:19      2.30    0.89    1.00
  YS02001649YS02001757 CONDUIT   1844.28     0  02:18      2.37    1.12    1.00
  YS02001652YS02001649 CONDUIT    753.99     0  02:25      0.96    0.37    1.00
  YS02001655YS02001652 CONDUIT    752.08     0  02:25      1.26    0.37    1.00
  YS02001658YS02001655 CONDUIT    751.53     0  02:25      1.86    0.32    1.00
  YS02001661YS02001658 CONDUIT    750.33     0  02:25      2.22    0.29    1.00
  YS02001664YS02001661 CONDUIT    877.37     0  02:24      2.16    0.28    0.72
  YS02001745YS02001748 CONDUIT    515.33     0  02:22      2.02    0.20    0.87
  YS02001748YS02001751 CONDUIT    442.58     0  02:25      1.59    0.22    1.00
  YS02001751YS02001754 CONDUIT    443.24     0  02:25      1.40    0.21    1.00
  YS02001754YS02001757 CONDUIT    443.28     0  02:25      0.56    0.18    1.00
  YS02001757CaochengTiaoxuchi CONDUIT   3063.32     0  02:23      3.90    1.33    1.00
  YS02001759YS02001757 CONDUIT   1250.70     0  02:24      1.59    0.89    1.00
  YS02001762YS02001759 CONDUIT    681.67     0  02:28      0.87    0.79    1.00
  YS02001765YS02001762 CONDUIT    681.08     0  02:28      0.87    0.64    1.00
  YS02001767YS02001765 CONDUIT    680.43     0  02:28      0.87    0.86    1.00
  YS02001770YS02001767 CONDUIT    679.24     0  02:23      0.86    2.69    1.00
  YS02001774YS02001770 CONDUIT    333.81     0  02:19      0.43    0.21    1.00
  YS02001779YS02001774 CONDUIT    340.02     0  02:19      0.44    0.17    1.00
  YS02001783YS02001784 CONDUIT   1158.84     0  02:24      2.31    1.60    1.00
  YS02001784YS02001785 CONDUIT   1159.49     0  02:24      2.31    2.70    1.00
  YS02001786YS02001788 CONDUIT   1159.95     0  02:25      2.46    2.23    0.89
  YS02001788YS02001790 CONDUIT   1168.91     0  02:25      2.69    0.86    0.84
  YS02001790YS02001791 CONDUIT   1290.27     0  02:23      3.44    1.40    0.70
  YS02001791YS02001793 CONDUIT   1253.51     0  02:24      6.46    0.54    0.44
  YS02001793JiankangQianchi CONDUIT   1203.18     0  02:27      2.36    0.10    0.65
  YS02001882YS02001884 CONDUIT     37.84     0  02:19      0.10    0.04    1.00
  YS02001884YS02001887 CONDUIT     72.63     0  02:18      0.09    0.10    1.00
  YS02001887YS02001890 CONDUIT    663.56     0  02:25      0.84    1.14    1.00
  YS02001890YS02001895 CONDUIT    515.80     0  02:26      0.66    0.24    1.00
  YS02001895YS02001898 CONDUIT    515.88     0  02:26      0.66    0.90    1.00
  YS02001898YS02001901 CONDUIT    516.03     0  02:25      0.66    0.33    1.00
  YS02001901YS02001904 CONDUIT    516.41     0  02:26      0.66    0.80    1.00
  YS02001904YS02001907 CONDUIT    516.58     0  02:25      0.66    0.18    1.00
  YS02001907YS02006553 CONDUIT    798.92     0  02:33      0.89    0.94    1.00
  YS02001910YS02001907 CONDUIT   1114.80     0  02:25      1.42    0.63    1.00
  YS02001915YS02001910 CONDUIT   1114.79     0  02:25      1.42    0.55    1.00
  YS02001918YS02001915 CONDUIT    456.73     0  02:22      0.58    0.25    1.00
  YS02001920YS02001918 CONDUIT    455.21     0  02:22      0.64    0.44    1.00
  YS02001923YS02001920 CONDUIT    452.06     0  02:22      0.71    0.20    1.00
  YS02001926YS02001923 CONDUIT    425.55     0  02:22      0.97    0.61    1.00
  YS02001929YS02001926 CONDUIT    423.57     0  02:22      1.13    0.20    1.00
  YS02006553YS02006556 CONDUIT    799.33     0  02:33      1.02    0.68    1.00
  YS02006556YS02006558 CONDUIT    802.08     0  02:33      1.02    0.63    1.00
  YS02006558YS02006561 CONDUIT   1164.98     0  02:21      4.12    2.57    1.00
  YS02006561YS02001783 CONDUIT   1158.39     0  02:24      2.30    0.60    1.00
  YS02163301YS02001633 CONDUIT    918.17     0  02:16      1.17    0.86    1.00
  YS02163601YS02164001 CONDUIT   1315.20     0  02:18      1.67    1.17    1.00
  YS02164001YS02001641 CONDUIT   1312.19     0  02:18      1.67    1.79    1.00
  CC-R1                PUMP       683.00     0  00:00              1.00
  CC-R2                PUMP       683.00     0  00:00              1.00
  CC-S1                PUMP       200.00     0  00:00              1.00
  CC-S2                PUMP       200.00     0  00:00              1.00
  JK-R1                PUMP      1000.00     0  00:00              1.00
  JK-R2                PUMP      1000.00     0  00:00              1.00
  JK-S                 PUMP       300.00     0  00:00              1.00
  XR-1                 PUMP        95.00     0  00:00              1.00
  XR-2                 PUMP        95.00     0  00:00              1.00
  XR-3                 PUMP        95.00     0  00:00              1.00
  XR-4                 PUMP        95.00     0  00:00              1.00
  
  
  ***************************
  Flow Classification Summary
  ***************************
  
  -------------------------------------------------------------------------------------
                      Adjusted    ---------- Fraction of Time in Flow Class ---------- 
                       /Actual         Up    Down  Sub   Sup   Up    Down  Norm  Inlet 
  Conduit               Length    Dry  Dry   Dry   Crit  Crit  Crit  Crit  Ltd   Ctrl  
  -------------------------------------------------------------------------------------
  1                       1.00   0.00  0.00  0.00  0.00  1.00  0.00  0.00  0.17  0.00
  WS02001211WS02001212    1.00   0.00  0.02  0.00  0.98  0.00  0.00  0.00  0.00  0.00
  WS02001212WS02001213    1.00   0.02  0.00  0.00  0.19  0.00  0.78  0.00  0.00  0.00
  WS02001213WS02003059    1.00   0.00  0.01  0.00  0.99  0.00  0.00  0.00  0.00  0.00
  WS02003059WS02003060    1.00   0.00  0.00  0.00  1.00  0.00  0.00  0.00  0.03  0.00
  WS02003060WS02003069    1.00   0.00  0.00  0.00  0.98  0.02  0.00  0.00  0.71  0.00
  WS02003066WSF200        1.00   0.13  0.00  0.00  0.00  0.87  0.00  0.00  0.74  0.00
  WS02003067WS02003066    1.00   0.10  0.02  0.00  0.88  0.00  0.00  0.00  0.00  0.00
  WS02003069WS02003072    1.00   0.00  0.00  0.00  1.00  0.00  0.00  0.00  0.78  0.00
  WS02003072WS02003073    1.00   0.00  0.00  0.00  0.00  0.00  0.00  1.00  0.00  0.00
  WS02004138WS02004139    1.00   0.00  0.00  0.00  0.97  0.01  0.00  0.02  0.98  0.00
  WS02004139WS02001211    1.00   0.00  0.00  0.00  0.99  0.00  0.00  0.00  0.00  0.00
  WS02004401WS02004402    1.00   0.02  0.00  0.00  0.98  0.00  0.00  0.00  0.00  0.00
  WS02004402WS02004403    1.00   0.02  0.00  0.00  0.97  0.00  0.00  0.00  0.00  0.00
  WS02004403WS02004404    1.00   0.00  0.03  0.00  0.97  0.00  0.00  0.00  0.00  0.00
  WS02004404WS02004405    1.00   0.00  0.00  0.00  1.00  0.00  0.00  0.00  0.00  0.00
  WS02004405WS02004406    1.00   0.00  0.00  0.00  1.00  0.00  0.00  0.00  0.00  0.00
  WS02004406WS02004407    1.00   0.00  0.05  0.00  0.95  0.00  0.00  0.00  0.00  0.00
  WS02004407WS02004409    1.00   0.05  0.00  0.00  0.94  0.01  0.00  0.00  0.94  0.00
  WS02004409WS02004410    1.00   0.05  0.00  0.00  0.95  0.00  0.00  0.00  0.03  0.00
  WS02004410WS02004411    1.00   0.05  0.00  0.00  0.95  0.00  0.00  0.00  0.01  0.00
  WS02004411WS02004412    1.00   0.05  0.00  0.00  0.95  0.00  0.00  0.00  0.00  0.00
  WS02004412WS02004413    1.00   0.05  0.00  0.00  0.94  0.00  0.00  0.00  0.01  0.00
  WS02004413WS02003067    1.00   0.06  0.04  0.00  0.00  0.00  0.90  0.00  0.00  0.00
  WS02006109WS02006110    1.00   0.00  0.01  0.00  0.98  0.00  0.01  0.00  0.00  0.00
  WS02006110WS02006113    1.00   0.01  0.01  0.00  0.98  0.00  0.00  0.00  0.00  0.00
  WS02006111WS02006112    1.00   0.02  0.00  0.00  0.98  0.00  0.00  0.00  0.98  0.00
  WS02006112WS02006115    1.00   0.02  0.00  0.00  0.97  0.00  0.00  0.00  0.00  0.00
  WS02006113WS02006111    1.00   0.02  0.00  0.00  0.00  0.98  0.00  0.00  0.08  0.00
  WS02006115WS02006116    1.00   0.02  0.00  0.00  0.97  0.00  0.00  0.01  0.00  0.00
  WS02006116WS02004401    1.00   0.02  0.00  0.00  0.98  0.00  0.00  0.00  0.00  0.00
  WS02006228WS02006109    1.00   0.00  0.00  0.00  1.00  0.00  0.00  0.00  0.00  0.00
  WS02006229WS02006228    1.00   0.00  0.00  0.00  0.99  0.00  0.00  0.01  0.00  0.00
  WS02006230WS02006229    1.00   0.00  0.00  0.00  0.99  0.00  0.00  0.01  0.00  0.00
  WS02006231WS02006230    1.00   0.00  0.00  0.00  0.19  0.00  0.81  0.00  0.00  0.00
  WS02006232WS02006231    1.00   0.00  0.00  0.00  0.99  0.00  0.01  0.00  0.00  0.00
  WS02006234WS02006232    1.00   0.00  0.00  0.00  1.00  0.00  0.00  0.00  0.40  0.00
  WS02006235WS02006234    1.00   0.00  0.00  0.00  0.54  0.00  0.46  0.00  0.00  0.00
  WS02006238WS02006235    1.00   0.00  0.00  0.00  1.00  0.00  0.00  0.00  0.00  0.00
  WS02006239WS02006238    1.00   0.00  0.00  0.00  1.00  0.00  0.00  0.00  0.55  0.00
  WS02006240WS02006239    1.00   0.00  0.00  0.00  0.38  0.00  0.00  0.62  0.01  0.00
  WS02006242WS02006240    1.00   0.00  0.00  0.00  1.00  0.00  0.00  0.00  0.00  0.00
  WS02006243WS02006242    1.00   0.00  0.00  0.00  0.99  0.00  0.00  0.01  0.75  0.00
  WS02006245WS02006243    1.00   0.00  0.00  0.00  0.44  0.00  0.00  0.56  0.01  0.00
  WS02006247WS02006245    1.00   0.00  0.00  0.00  0.99  0.00  0.00  0.01  0.00  0.00
  WS02006248WS02006247    1.00   0.00  0.00  0.00  0.99  0.00  0.00  0.01  0.21  0.00
  WS02006249WS02006248    1.00   0.00  0.00  0.00  0.29  0.00  0.71  0.00  0.00  0.00
  WS02006251WS02006249    1.00   0.00  0.00  0.00  0.99  0.01  0.00  0.00  0.74  0.00
  WS02006252WS02006251    1.00   0.00  0.76  0.00  0.12  0.00  0.12  0.00  0.00  0.00
  WS02006256WS02006235    1.00   0.00  0.00  0.00  0.99  0.01  0.00  0.00  0.00  0.00
  WSF200WS02003060        1.00   0.00  0.13  0.00  0.70  0.17  0.00  0.00  0.68  0.00
  YS02001580YS02001583    1.00   0.28  0.56  0.00  0.16  0.00  0.00  0.00  0.65  0.00
  YS02001583YS02001586    1.00   0.48  0.30  0.00  0.21  0.00  0.00  0.00  0.65  0.00
  YS02001586YS02001590    1.00   0.13  0.00  0.00  0.40  0.04  0.00  0.44  0.36  0.00
  YS02001590YS02001593    1.00   0.13  0.01  0.00  0.08  0.00  0.78  0.00  0.00  0.00
  YS02001593YS02001596    1.00   0.14  0.00  0.00  0.10  0.01  0.00  0.76  0.02  0.00
  YS02001596YS02001600    1.00   0.14  0.00  0.00  0.16  0.02  0.00  0.68  0.05  0.00
  YS02001600YS02001601    1.00   0.13  0.01  0.00  0.86  0.00  0.00  0.00  0.63  0.00
  YS02001601YS02001602    1.00   0.13  0.01  0.00  0.86  0.00  0.00  0.00  0.00  0.00
  YS02001602YS02001605    1.00   0.14  0.00  0.00  0.86  0.00  0.00  0.00  0.00  0.00
  YS02001605YS02001607    1.00   0.14  0.00  0.00  0.86  0.00  0.00  0.00  0.00  0.00
  YS02001607YS02001610    1.00   0.13  0.01  0.00  0.86  0.00  0.00  0.00  0.02  0.00
  YS02001610YS02001613    1.00   0.13  0.00  0.00  0.87  0.00  0.00  0.00  0.01  0.00
  YS02001613YS02001616    1.00   0.13  0.00  0.00  0.87  0.00  0.00  0.00  0.01  0.00
  YS02001616YS02001619    1.00   0.13  0.00  0.00  0.87  0.00  0.00  0.00  0.00  0.00
  YS02001619YS02001622    1.00   0.13  0.00  0.00  0.87  0.00  0.00  0.00  0.34  0.00
  YS02001622YS02001625    1.00   0.13  0.00  0.00  0.87  0.00  0.00  0.00  0.05  0.00
  YS02001625YS02001629    1.00   0.13  0.06  0.00  0.13  0.00  0.69  0.00  0.00  0.00
  YS02001629YS02163301    1.00   0.16  0.01  0.00  0.83  0.00  0.00  0.00  0.00  0.00
  YS02001633YS02163601    1.00   0.00  0.01  0.00  0.99  0.00  0.00  0.00  0.15  0.00
  YS02001641YS02001644    1.00   0.00  0.01  0.00  0.99  0.00  0.00  0.00  0.00  0.00
  YS02001644YS02001647    1.00   0.00  0.18  0.00  0.82  0.00  0.00  0.00  0.00  0.00
  YS02001647YS02001649    1.00   0.00  0.18  0.00  0.53  0.28  0.00  0.00  0.58  0.00
  YS02001649YS02001757    1.00   0.00  0.00  0.00  0.69  0.31  0.00  0.00  0.52  0.00
  YS02001652YS02001649    1.00   0.00  0.00  0.00  0.96  0.04  0.00  0.00  0.79  0.00
  YS02001655YS02001652    1.00   0.00  0.00  0.00  0.14  0.01  0.00  0.84  0.04  0.00
  YS02001658YS02001655    1.00   0.00  0.14  0.00  0.64  0.21  0.00  0.00  0.73  0.00
  YS02001661YS02001658    1.00   0.14  0.00  0.00  0.51  0.35  0.00  0.00  0.74  0.00
  YS02001664YS02001661    1.00   0.13  0.00  0.00  0.79  0.09  0.00  0.00  0.86  0.00
  YS02001745YS02001748    1.00   0.00  0.00  0.00  0.07  0.00  0.00  0.93  0.03  0.00
  YS02001748YS02001751    1.00   0.00  0.00  0.00  0.82  0.18  0.00  0.00  0.76  0.00
  YS02001751YS02001754    1.00   0.00  0.00  0.00  0.12  0.00  0.00  0.88  0.02  0.00
  YS02001754YS02001757    1.00   0.00  0.00  0.00  1.00  0.00  0.00  0.00  0.86  0.00
  YS02001757CaochengTiaoxuchi    1.00   0.00  0.00  0.00  1.00  0.00  0.00  0.00  0.86  0.00
  YS02001759YS02001757    1.00   0.00  0.00  0.00  1.00  0.00  0.00  0.00  0.63  0.00
  YS02001762YS02001759    1.00   0.00  0.00  0.00  1.00  0.00  0.00  0.00  0.05  0.00
  YS02001765YS02001762    1.00   0.00  0.00  0.00  1.00  0.00  0.00  0.00  0.76  0.00
  YS02001767YS02001765    1.00   0.00  0.00  0.00  1.00  0.00  0.00  0.00  0.00  0.00
  YS02001770YS02001767    1.00   0.00  0.00  0.00  1.00  0.00  0.00  0.00  0.00  0.00
  YS02001774YS02001770    1.00   0.00  0.13  0.00  0.60  0.00  0.26  0.00  0.04  0.00
  YS02001779YS02001774    1.00   0.00  0.00  0.00  1.00  0.00  0.00  0.00  0.80  0.00
  YS02001783YS02001784    1.00   0.00  0.19  0.00  0.81  0.00  0.00  0.00  0.57  0.00
  YS02001784YS02001785    1.00   0.00  0.00  0.00  1.00  0.00  0.00  0.00  0.18  0.00
  YS02001786YS02001788    1.00   0.00  0.00  0.00  0.80  0.20  0.00  0.00  0.00  0.00
  YS02001788YS02001790    1.00   0.00  0.00  0.00  0.22  0.78  0.00  0.00  0.84  0.00
  YS02001790YS02001791    1.00   0.00  0.00  0.00  0.01  0.99  0.00  0.00  0.15  0.00
  YS02001791YS02001793    1.00   0.00  0.00  0.00  0.00  1.00  0.00  0.00  0.01  0.00
  YS02001793JiankangQianchi    1.00   0.00  0.00  0.00  1.00  0.00  0.00  0.00  0.96  0.00
  YS02001882YS02001884    1.00   0.16  0.01  0.00  0.83  0.00  0.00  0.00  0.00  0.00
  YS02001884YS02001887    1.00   0.06  0.05  0.00  0.89  0.00  0.00  0.00  0.00  0.00
  YS02001887YS02001890    1.00   0.00  0.00  0.00  0.97  0.00  0.03  0.00  0.00  0.00
  YS02001890YS02001895    1.00   0.00  0.17  0.00  0.83  0.00  0.00  0.00  0.00  0.00
  YS02001895YS02001898    1.00   0.17  0.00  0.00  0.81  0.00  0.02  0.00  0.00  0.00
  YS02001898YS02001901    1.00   0.17  0.00  0.00  0.82  0.00  0.00  0.00  0.02  0.00
  YS02001901YS02001904    1.00   0.17  0.00  0.00  0.83  0.00  0.00  0.00  0.00  0.00
  YS02001904YS02001907    1.00   0.00  0.17  0.00  0.83  0.00  0.00  0.00  0.00  0.00
  YS02001907YS02006553    1.00   0.00  0.02  0.00  0.98  0.00  0.00  0.00  0.00  0.00
  YS02001910YS02001907    1.00   0.00  0.00  0.00  0.97  0.00  0.00  0.03  0.12  0.00
  YS02001915YS02001910    1.00   0.00  0.00  0.00  0.96  0.04  0.00  0.00  0.17  0.00
  YS02001918YS02001915    1.00   0.00  0.01  0.00  0.98  0.02  0.00  0.00  0.78  0.00
  YS02001920YS02001918    1.00   0.00  0.01  0.00  0.99  0.00  0.00  0.00  0.00  0.00
  YS02001923YS02001920    1.00   0.00  0.00  0.00  1.00  0.00  0.00  0.00  0.95  0.00
  YS02001926YS02001923    1.00   0.00  0.07  0.00  0.04  0.00  0.89  0.00  0.00  0.00
  YS02001929YS02001926    1.00   0.00  0.13  0.00  0.87  0.00  0.00  0.00  0.84  0.00
  YS02006553YS02006556    1.00   0.01  0.00  0.00  0.99  0.00  0.00  0.00  0.03  0.00
  YS02006556YS02006558    1.00   0.00  0.00  0.00  1.00  0.00  0.00  0.00  0.00  0.00
  YS02006558YS02006561    1.00   0.19  0.00  0.00  0.04  0.78  0.00  0.00  0.18  0.00
  YS02006561YS02001783    1.00   0.19  0.00  0.00  0.06  0.75  0.00  0.00  0.71  0.00
  YS02163301YS02001633    1.00   0.00  0.16  0.00  0.84  0.00  0.00  0.00  0.00  0.00
  YS02163601YS02164001    1.00   0.00  0.08  0.00  0.92  0.00  0.00  0.00  0.00  0.00
  YS02164001YS02001641    1.00   0.01  0.07  0.00  0.92  0.00  0.00  0.00  0.06  0.00
  
  
  *************************
  Conduit Surcharge Summary
  *************************
  
  ----------------------------------------------------------------------------
                                                           Hours        Hours 
                         --------- Hours Full --------   Above Full   Capacity
  Conduit                Both Ends  Upstream  Dnstream   Normal Flow   Limited
  ----------------------------------------------------------------------------
  WS02003072WS02003073        0.01      0.01      0.01      1.54         0.01
  WS02004404WS02004405        0.01      0.01      0.01      1.80         0.01
  WS02004405WS02004406        0.01      0.01      0.01      0.85         0.01
  WS02006109WS02006110        0.78      0.78      1.42      0.87         0.01
  WS02006110WS02006113        0.01      0.01      1.39      0.01         0.01
  WS02006111WS02006112        0.01      0.01      1.51      0.01         0.01
  WS02006112WS02006115        0.01      0.01      0.88      0.01         0.01
  WS02006228WS02006109        1.36      1.42      1.36      1.61         1.36
  WS02006229WS02006228        1.35      1.38      1.35      1.54         1.35
  WS02006230WS02006229        1.47      1.51      1.47      2.31         1.46
  WS02006231WS02006230        0.78      0.78      0.94      2.04         0.01
  WS02006232WS02006231        0.90      0.90      1.43      0.95         0.01
  WS02006234WS02006232        1.31      1.31      1.43      0.94         0.93
  WS02006235WS02006234        1.07      1.07      1.34      1.91         0.01
  WS02006238WS02006235        1.36      1.36      1.43      0.01         0.01
  WS02006239WS02006238        1.36      1.37      1.39      1.38         1.21
  WS02006240WS02006239        1.34      1.35      1.34      1.39         1.15
  WS02006242WS02006240        1.35      1.35      1.37      1.47         0.01
  WS02006243WS02006242        1.35      1.35      1.36      0.01         0.04
  WS02006245WS02006243        1.34      1.34      1.35      0.59         0.57
  WS02006247WS02006245        1.34      1.35      1.34      1.69         1.33
  WS02006248WS02006247        1.34      1.34      1.34      0.01         0.04
  WS02006249WS02006248        1.33      1.34      1.34      1.67         0.01
  WS02006251WS02006249        1.33      1.33      1.33      1.44         1.28
  WS02006252WS02006251        1.50      1.50      1.50      1.51         0.01
  WS02006256WS02006235        1.94      1.97      3.63      1.24         0.01
  YS02001580YS02001583        0.41      0.41      0.44      0.01         0.01
  YS02001583YS02001586        0.42      0.42      0.51      0.01         0.01
  YS02001586YS02001590        0.51      0.51      0.57      0.01         0.01
  YS02001590YS02001593        0.57      0.57      0.59      0.59         0.01
  YS02001593YS02001596        0.58      0.58      0.67      0.01         0.01
  YS02001596YS02001600        0.72      0.72      0.81      0.01         0.01
  YS02001600YS02001601        0.86      0.86      1.13      0.01         0.01
  YS02001601YS02001602        1.02      1.02      1.17      0.80         0.01
  YS02001602YS02001605        0.98      0.98      1.02      2.04         0.01
  YS02001605YS02001607        0.93      0.98      0.93      1.09         0.93
  YS02001607YS02001610        0.55      0.55      0.57      0.01         0.01
  YS02001610YS02001613        0.54      0.54      0.57      0.01         0.01
  YS02001613YS02001616        0.50      0.50      0.54      0.01         0.01
  YS02001616YS02001619        0.50      0.50      0.50      0.01         0.01
  YS02001619YS02001622        0.49      0.50      0.49      0.58         0.46
  YS02001622YS02001625        0.49      0.49      0.65      0.01         0.01
  YS02001625YS02001629        0.46      0.46      0.65      0.01         0.01
  YS02001629YS02163301        0.64      0.64      0.65      0.11         0.13
  YS02001633YS02163601        0.67      0.67      0.70      0.26         0.25
  YS02001641YS02001644        0.58      0.61      0.58      1.22         0.57
  YS02001644YS02001647        0.41      0.41      0.58      0.01         0.01
  YS02001647YS02001649        0.41      0.41      0.50      0.01         0.01
  YS02001649YS02001757        0.50      0.50      0.56      0.05         0.03
  YS02001652YS02001649        0.38      0.38      0.50      0.01         0.01
  YS02001655YS02001652        0.26      0.26      0.36      0.01         0.01
  YS02001658YS02001655        0.14      0.14      0.26      0.01         0.01
  YS02001661YS02001658        0.01      0.01      0.14      0.01         0.01
  YS02001664YS02001661        0.01      0.01      0.03      0.01         0.01
  YS02001745YS02001748        0.01      0.01      0.09      0.01         0.01
  YS02001748YS02001751        0.13      0.13      0.19      0.01         0.01
  YS02001751YS02001754        0.19      0.19      0.29      0.01         0.01
  YS02001754YS02001757        0.33      0.33      0.56      0.01         0.01
  YS02001757CaochengTiaoxuchi        0.56      0.56      1.14      0.22         0.22
  YS02001759YS02001757        0.48      0.48      0.56      0.01         0.01
  YS02001762YS02001759        0.45      0.45      0.48      0.01         0.02
  YS02001765YS02001762        0.42      0.42      0.45      0.01         0.01
  YS02001767YS02001765        0.40      0.40      0.42      0.01         0.02
  YS02001770YS02001767        0.40      0.40      0.40      0.29         0.25
  YS02001774YS02001770        0.37      0.37      0.44      0.01         0.01
  YS02001779YS02001774        0.29      0.29      0.44      0.01         0.01
  YS02001783YS02001784        0.33      0.35      0.33      0.48         0.33
  YS02001784YS02001785        0.24      0.33      0.24      0.67         0.24
  YS02001786YS02001788        0.01      0.24      0.01      0.57         0.01
  YS02001790YS02001791        0.01      0.01      0.01      0.32         0.01
  YS02001793JiankangQianchi        0.01      0.01      7.70      0.01         0.01
  YS02001882YS02001884        0.31      0.31      0.32      0.01         0.01
  YS02001884YS02001887        0.33      0.33      0.34      0.01         0.01
  YS02001887YS02001890        0.35      0.35      0.36      0.05         0.01
  YS02001890YS02001895        0.30      0.30      0.38      0.01         0.01
  YS02001895YS02001898        0.29      0.29      0.30      0.01         0.01
  YS02001898YS02001901        0.30      0.30      0.33      0.01         0.01
  YS02001901YS02001904        0.32      0.32      0.33      0.01         0.01
  YS02001904YS02001907        0.32      0.32      0.56      0.01         0.01
  YS02001907YS02006553        0.68      0.68      0.73      0.01         0.01
  YS02001910YS02001907        0.38      0.38      0.54      0.01         0.01
  YS02001915YS02001910        0.30      0.30      0.37      0.01         0.01
  YS02001918YS02001915        0.23      0.23      0.30      0.01         0.01
  YS02001920YS02001918        0.23      0.23      0.24      0.01         0.01
  YS02001923YS02001920        0.20      0.20      0.24      0.01         0.01
  YS02001926YS02001923        0.02      0.02      0.03      0.01         0.01
  YS02001929YS02001926        0.01      0.01      0.03      0.01         0.01
  YS02006553YS02006556        0.46      0.46      0.56      0.01         0.01
  YS02006556YS02006558        0.50      0.50      0.58      0.01         0.01
  YS02006558YS02006561        0.26      0.45      0.26      0.64         0.26
  YS02006561YS02001783        0.20      0.20      0.35      0.01         0.01
  YS02163301YS02001633        0.65      0.65      0.69      0.01         0.01
  YS02163601YS02164001        0.62      0.62      0.70      0.07         0.01
  YS02164001YS02001641        0.61      0.62      0.61      0.54         0.45
  
  
  ***************
  Pumping Summary
  ***************
  
  ---------------------------------------------------------------------------------------------------------
                                                  Min       Avg       Max     Total     Power    % Time Off
                        Percent   Number of      Flow      Flow      Flow    Volume     Usage    Pump Curve
  Pump                 Utilized   Start-Ups       LPS       LPS       LPS  10^6 ltr     Kw-hr    Low   High
  ---------------------------------------------------------------------------------------------------------
  CC-R1                   17.22          11      0.00    683.00    683.00     3.387     62.22    0.0   26.7
  CC-R2                   15.95          11      0.00    683.00    683.00     3.138     57.62    0.0   28.8
  CC-S1                   21.63          11      0.00    200.00    200.00     1.246      7.31    0.0    0.0
  CC-S2                   18.81          11      0.00    200.00    200.00     1.084      6.34    0.0    0.0
  JK-R1                    5.87          10      0.00   1000.00   1000.00     1.690     20.27    0.0    0.0
  JK-R2                    0.16           1      0.00   1000.00   1000.00     0.047      0.36    0.0    0.0
  JK-S                    15.52          14      0.00    300.00    300.00     1.341     18.18    0.0    0.0
  XR-1                    97.91           2      0.00     95.00     95.00     2.679      9.60    0.0    0.0
  XR-2                    93.94           2      0.00     95.00     95.00     2.570      8.76    0.0    0.0
  XR-3                     0.00           1      0.00     95.00     95.00     0.000      0.00    0.0    0.0
  XR-4                     0.00           1      0.00     95.00     95.00     0.000      0.00    0.0    0.0
  

  Analysis begun on:  Wed Nov  5 16:30:30 2025
  Analysis ended on:  Wed Nov  5 16:30:33 2025
  Total elapsed time: 00:00:03