
  EPA STORM WATER MANAGEMENT MODEL - VERSION 5.2 (Build 5.2.4)
  PYSWMM TOOLKIT API - VERSION v1.0 (2023-11-27)
  ------------------------------------------------------------

  WARNING 04: minimum elevation drop used for Conduit WS02004404WS02004405
  WARNING 03: negative offset ignored for Link YS02001904YS02001907
  
  ****************
  Analysis Options
  ****************
  Flow Units ............... LPS
  Process Models:
    Rainfall/Runoff ........ YES
    RDII ................... NO
    Snowmelt ............... NO
    Groundwater ............ NO
    Flow Routing ........... YES
    Ponding Allowed ........ NO
    Water Quality .......... NO
  Infiltration Method ...... HORTON
  Flow Routing Method ...... DYNWAVE
  Surcharge Method ......... EXTRAN
  Starting Date ............ 08/28/2015 08:00:00
  Ending Date .............. 08/28/2015 16:00:00
  Antecedent Dry Days ...... 8.0
  Report Time Step ......... 00:01:00
  Wet Time Step ............ 00:01:00
  Dry Time Step ............ 00:01:00
  Routing Time Step ........ 30.00 sec
  Variable Time Step ....... YES
  Maximum Trials ........... 8
  Number of Threads ........ 4
  Head Tolerance ........... 0.001500 m
  
  
  **************************        Volume         Depth
  Runoff Quantity Continuity     hectare-m            mm
  **************************     ---------       -------
  Initial LID Storage ......         0.049         1.488
  Total Precipitation ......         1.627        49.050
  Evaporation Loss .........         0.000         0.000
  Infiltration Loss ........         0.074         2.217
  Surface Runoff ...........         1.185        35.729
  Final Storage ............         0.419        12.618
  Continuity Error (%) .....        -0.052
  
  
  **************************        Volume        Volume
  Flow Routing Continuity        hectare-m      10^6 ltr
  **************************     ---------     ---------
  Dry Weather Inflow .......         0.602         6.020
  Wet Weather Inflow .......         1.185        11.852
  Groundwater Inflow .......         0.000         0.000
  RDII Inflow ..............         0.000         0.000
  External Inflow ..........         0.105         1.045
  External Outflow .........         1.640        16.395
  Flooding Loss ............         0.225         2.247
  Evaporation Loss .........         0.000         0.000
  Exfiltration Loss ........         0.000         0.000
  Initial Stored Volume ....         0.303         3.031
  Final Stored Volume ......         0.335         3.355
  Continuity Error (%) .....        -0.222
  
  
  *************************
  Highest Continuity Errors
  *************************
  Node YS02001583 (-5.39%)
  Node YS02001884 (4.64%)
  Node YS02001774 (1.59%)
  
  
  ***************************
  Time-Step Critical Elements
  ***************************
  Link WS02004404WS02004405 (36.30%)
  Link WS02006238WS02006235 (20.12%)
  Link WS02006252WS02006251 (10.65%)
  Link YS02001791YS02001793 (9.62%)
  Link WS02006235WS02006234 (6.29%)
  
  
  ********************************
  Highest Flow Instability Indexes
  ********************************
  Link WS02006113WS02006111 (26)
  Link WS02006238WS02006235 (21)
  Link WS02006111WS02006112 (18)
  Link WS02006239WS02006238 (15)
  Link WS02006235WS02006234 (15)
  
  
  *********************************
  Most Frequent Nonconverging Nodes
  *********************************
  Node CC-1 (9.13%)
  Node CC-2 (9.13%)
  Node JK-1 (9.13%)
  Node JK-2 (9.13%)
  Node WSC (9.13%)
  
  
  *************************
  Routing Time Step Summary
  *************************
  Minimum Time Step           :     0.01 sec
  Average Time Step           :     3.54 sec
  Maximum Time Step           :     7.04 sec
  % of Time in Steady State   :     0.00
  Average Iterations per Step :     3.01
  % of Steps Not Converging   :     9.13
  Time Step Frequencies       :
     30.000 - 13.228 sec      :     0.00 %
     13.228 -  5.833 sec      :    28.05 %
      5.833 -  2.572 sec      :    31.22 %
      2.572 -  1.134 sec      :    23.69 %
      1.134 -  0.500 sec      :    17.04 %
  
  
  ***************************
  Subcatchment Runoff Summary
  ***************************
  
  ------------------------------------------------------------------------------------------------------------------------------
                            Total      Total      Total      Total     Imperv       Perv      Total       Total     Peak  Runoff
                           Precip      Runon       Evap      Infil     Runoff     Runoff     Runoff      Runoff   Runoff   Coeff
  Subcatchment                 mm         mm         mm         mm         mm         mm         mm    10^6 ltr      LPS
  ------------------------------------------------------------------------------------------------------------------------------
  sub60                     49.05       0.00       0.00       1.31      32.39       3.23      35.62        0.47   347.30   0.726
  sub61                     49.05       0.00       0.00       2.02      32.36       4.80      37.16        0.68   505.64   0.758
  sub62                     49.05       0.00       0.00       0.89      34.49       2.19      36.69        1.01   687.61   0.748
  sub63                     49.05       0.00       0.00       3.71      27.71       7.93      35.65        0.81   566.25   0.727
  sub64                     49.05       0.00       0.00       1.78      31.55       3.95      35.50        0.85   561.19   0.724
  sub65                     49.05       0.00       0.00       1.63      34.05       3.61      37.66        1.04   655.21   0.768
  sub66                     49.05       0.00       0.00       4.36      26.79       6.92      33.71        1.57   835.87   0.687
  sub67                     49.05       0.00       0.00       0.89      35.37       2.28      37.64        0.70   541.04   0.767
  sub68                     49.05       0.00       0.00       1.55      31.23       3.68      34.91        0.96   687.12   0.712
  sub69                     49.05       0.00       0.00       1.40      32.96       4.43      37.39        1.38   848.82   0.762
  sub70                     49.05       0.00       0.00       4.77      26.40       8.89      35.28        1.02   482.97   0.719
  sub71                     49.05       0.00       0.00       0.83      31.33       1.98      33.31        0.87   568.60   0.679
  sub72                     49.05       0.00       0.00       0.79      33.83       1.84      35.67        0.49   291.88   0.727
  

  ***********************
  LID Performance Summary
  ***********************

  --------------------------------------------------------------------------------------------------------------------
                                         Total      Evap     Infil   Surface    Drain    Initial     Final  Continuity
                                        Inflow      Loss      Loss   Outflow   Outflow   Storage   Storage       Error
  Subcatchment      LID Control             mm        mm        mm        mm        mm        mm        mm           %
  --------------------------------------------------------------------------------------------------------------------
  sub60             GreenRoof            49.05      0.00      0.00      0.00      0.00      7.05     56.18       -0.14
  sub61             GreenRoof            49.05      0.00      0.00      0.00      0.00      7.05     56.18       -0.14
  sub62             GreenRoof            49.05      0.00      0.00      0.00      0.00      7.05     56.18       -0.14
  sub63             GreenRoof            49.05      0.00      0.00      0.00      0.00      7.05     56.18       -0.14
  sub64             GreenRoof            49.05      0.00      0.00      0.00      0.00      7.05     56.18       -0.14
  sub65             GreenRoof            49.05      0.00      0.00      0.00      0.00      7.05     56.18       -0.14
  sub66             GreenRoof            49.05      0.00      0.00      0.00      0.00      7.05     56.18       -0.14
  sub67             GreenRoof            49.05      0.00      0.00      0.00      0.00      7.05     56.18       -0.14
  sub68             GreenRoof            49.05      0.00      0.00      0.00      0.00      7.05     56.18       -0.14
  sub69             GreenRoof            49.05      0.00      0.00      0.00      0.00      7.05     56.18       -0.14
  sub70             GreenRoof            49.05      0.00      0.00      0.00      0.00      7.05     56.18       -0.14
  sub71             GreenRoof            49.05      0.00      0.00      0.00      0.00      7.05     56.18       -0.14
  sub72             GreenRoof            49.05      0.00      0.00      0.00      0.00      7.05     56.18       -0.14
  
  ******************
  Node Depth Summary
  ******************
  
  ---------------------------------------------------------------------------------
                                 Average  Maximum  Maximum  Time of Max    Reported
                                   Depth    Depth      HGL   Occurrence   Max Depth
  Node                 Type       Meters   Meters   Meters  days hr:min      Meters
  ---------------------------------------------------------------------------------
  WS02001211           JUNCTION     0.60     0.64     5.48     0  02:53        0.64
  WS02001212           JUNCTION     0.33     0.38     5.45     0  02:46        0.38
  WS02001213           JUNCTION     0.52     0.65     5.41     0  02:45        0.65
  WS02003059           JUNCTION     0.58     0.72     5.40     0  02:44        0.72
  WS02003060           JUNCTION     0.29     0.45     5.38     0  02:43        0.45
  WS02003066           JUNCTION     0.15     0.30     5.85     0  02:47        0.30
  WS02003067           JUNCTION     0.42     0.70     6.02     0  02:47        0.70
  WS02003069           JUNCTION     0.33     0.51     5.10     0  02:51        0.51
  WS02003072           JUNCTION     0.39     0.58     4.95     0  02:52        0.58
  WS02003073           JUNCTION     0.23     0.35     4.41     0  02:53        0.35
  WS02004138           JUNCTION     0.13     0.14     7.39     0  00:29        0.14
  WS02004139           JUNCTION     0.54     0.58     5.49     0  02:54        0.58
  WS02004401           JUNCTION     0.50     0.85     6.85     0  02:38        0.85
  WS02004402           JUNCTION     0.53     0.88     6.84     0  02:39        0.88
  WS02004403           JUNCTION     0.56     0.89     6.82     0  02:39        0.89
  WS02004404           JUNCTION     0.63     0.96     6.81     0  02:39        0.96
  WS02004405           JUNCTION     0.63     0.96     6.81     0  02:39        0.96
  WS02004406           JUNCTION     0.64     0.96     6.79     0  02:37        0.96
  WS02004407           JUNCTION     0.13     0.30     6.61     0  02:38        0.30
  WS02004409           JUNCTION     0.29     0.67     6.44     0  02:45        0.67
  WS02004410           JUNCTION     0.32     0.68     6.40     0  02:46        0.68
  WS02004411           JUNCTION     0.34     0.69     6.37     0  02:46        0.69
  WS02004412           JUNCTION     0.37     0.70     6.34     0  02:46        0.70
  WS02004413           JUNCTION     0.52     0.86     6.33     0  02:47        0.86
  WS02006109           JUNCTION     0.56     1.07     7.69     0  03:11        0.98
  WS02006110           JUNCTION     0.56     1.04     7.63     0  03:11        0.94
  WS02006111           JUNCTION     0.14     0.29     6.99     0  02:50        0.29
  WS02006112           JUNCTION     0.65     1.07     6.95     0  02:32        1.05
  WS02006113           JUNCTION     0.21     0.46     7.35     0  03:12        0.45
  WS02006115           JUNCTION     0.38     0.75     6.89     0  02:38        0.75
  WS02006116           JUNCTION     0.47     0.83     6.87     0  02:38        0.83
  WS02006228           JUNCTION     0.55     1.10     7.75     0  03:11        1.06
  WS02006229           JUNCTION     0.52     1.09     7.79     0  03:11        1.08
  WS02006230           JUNCTION     0.51     1.22     7.96     0  03:10        1.20
  WS02006231           JUNCTION     0.33     1.01     8.13     0  02:10        0.97
  WS02006232           JUNCTION     0.46     1.19     8.23     0  03:11        1.19
  WS02006234           JUNCTION     0.38     1.23     8.39     0  03:11        1.23
  WS02006235           JUNCTION     0.42     1.32     8.48     0  03:11        1.32
  WS02006238           JUNCTION     0.45     1.35     8.50     0  03:11        1.35
  WS02006239           JUNCTION     0.41     1.33     8.54     0  03:11        1.33
  WS02006240           JUNCTION     0.38     1.29     8.58     0  03:11        1.28
  WS02006242           JUNCTION     0.43     1.35     8.62     0  03:11        1.34
  WS02006243           JUNCTION     0.36     1.22     8.64     0  03:11        1.21
  WS02006245           JUNCTION     0.36     1.23     8.71     0  02:09        1.22
  WS02006247           JUNCTION     0.37     1.22     8.72     0  03:13        1.22
  WS02006248           JUNCTION     0.35     1.10     8.69     0  02:09        1.10
  WS02006249           JUNCTION     0.37     1.09     8.69     0  02:09        1.09
  WS02006251           JUNCTION     0.37     1.42     9.09     0  02:10        1.13
  WS02006252           JUNCTION     0.25     1.50     9.74     0  00:00        0.68
  WS02006256           JUNCTION     1.06     2.35     9.28     0  00:00        2.35
  WSF200               JUNCTION     0.12     0.31     5.54     0  02:36        0.31
  YS02001580           JUNCTION     0.08     1.05     9.59     0  02:08        0.77
  YS02001583           JUNCTION     0.11     0.99     9.49     0  02:08        0.82
  YS02001586           JUNCTION     0.20     1.13     9.30     0  02:08        1.13
  YS02001590           JUNCTION     0.30     1.40     9.26     0  02:08        1.37
  YS02001593           JUNCTION     0.24     1.34     9.20     0  02:08        1.29
  YS02001596           JUNCTION     0.34     1.69     9.11     0  02:08        1.65
  YS02001600           JUNCTION     0.42     1.87     9.00     0  02:08        1.86
  YS02001601           JUNCTION     0.61     2.06     8.90     0  02:07        2.06
  YS02001602           JUNCTION     0.52     1.87     8.77     0  02:08        1.87
  YS02001605           JUNCTION     0.48     1.78     8.68     0  02:08        1.77
  YS02001607           JUNCTION     0.45     1.68     8.53     0  02:08        1.64
  YS02001610           JUNCTION     0.49     1.68     8.48     0  02:08        1.68
  YS02001613           JUNCTION     0.45     1.70     8.54     0  02:08        1.65
  YS02001616           JUNCTION     0.38     1.61     8.52     0  02:08        1.59
  YS02001619           JUNCTION     0.36     1.61     8.54     0  02:08        1.59
  YS02001622           JUNCTION     0.35     1.62     8.52     0  02:08        1.56
  YS02001625           JUNCTION     0.60     1.78     8.38     0  02:08        1.78
  YS02001629           JUNCTION     0.48     1.85     8.40     0  02:08        1.85
  YS02001633           JUNCTION     0.56     2.01     8.47     0  02:11        1.98
  YS02001641           JUNCTION     0.53     1.95     8.38     0  02:12        1.93
  YS02001644           JUNCTION     0.52     1.92     8.35     0  02:12        1.92
  YS02001647           JUNCTION     0.30     1.79     8.40     0  02:12        1.71
  YS02001649           JUNCTION     0.35     1.97     8.36     0  02:12        1.87
  YS02001652           JUNCTION     0.23     1.87     8.46     0  02:12        1.71
  YS02001655           JUNCTION     0.17     1.91     8.76     0  02:12        1.50
  YS02001658           JUNCTION     0.12     1.91     9.05     0  02:12        1.25
  YS02001661           JUNCTION     0.15     1.35     8.76     0  02:13        1.04
  YS02001664           JUNCTION     0.06     0.58     8.51     0  02:13        0.41
  YS02001745           JUNCTION     0.06     0.79     8.31     0  02:12        0.77
  YS02001748           JUNCTION     0.11     1.87     8.95     0  02:12        1.17
  YS02001751           JUNCTION     0.14     1.80     8.67     0  02:12        1.33
  YS02001754           JUNCTION     0.20     1.79     8.39     0  02:12        1.57
  YS02001757           JUNCTION     0.36     2.02     8.28     0  02:12        1.88
  YS02001759           JUNCTION     0.30     1.97     8.33     0  02:12        1.83
  YS02001762           JUNCTION     0.29     1.96     8.36     0  02:12        1.80
  YS02001765           JUNCTION     0.27     1.94     8.39     0  02:12        1.77
  YS02001767           JUNCTION     0.27     1.91     8.40     0  02:12        1.77
  YS02001770           JUNCTION     0.28     1.95     8.44     0  02:11        1.83
  YS02001774           JUNCTION     0.34     1.99     8.41     0  02:12        1.92
  YS02001779           JUNCTION     0.18     1.68     8.37     0  02:11        1.68
  YS02001783           JUNCTION     0.26     1.34     7.48     0  02:11        1.24
  YS02001784           JUNCTION     0.27     1.17     7.24     0  02:11        1.13
  YS02001786           JUNCTION     0.23     0.91     6.94     0  02:11        0.88
  YS02001788           JUNCTION     0.17     0.62     6.60     0  02:12        0.62
  YS02001790           JUNCTION     0.20     0.72     6.36     0  02:16        0.72
  YS02001791           JUNCTION     0.13     0.44     5.91     0  02:15        0.43
  YS02001793           JUNCTION     0.06     0.23     5.06     0  02:12        0.22
  YS02001882           JUNCTION     0.31     1.83     8.55     0  02:10        1.64
  YS02001884           JUNCTION     0.40     1.93     8.55     0  02:10        1.74
  YS02001887           JUNCTION     0.48     1.96     8.50     0  02:10        1.81
  YS02001890           JUNCTION     0.51     1.81     8.32     0  02:10        1.81
  YS02001895           JUNCTION     0.29     1.58     8.33     0  02:10        1.55
  YS02001898           JUNCTION     0.29     1.58     8.31     0  02:10        1.56
  YS02001901           JUNCTION     0.40     1.70     8.31     0  02:10        1.67
  YS02001904           JUNCTION     0.38     1.67     8.30     0  02:10        1.63
  YS02001907           JUNCTION     0.69     1.96     8.25     0  02:10        1.96
  YS02001910           JUNCTION     0.50     2.10     8.61     0  02:10        1.82
  YS02001915           JUNCTION     0.31     2.00     8.72     0  02:10        1.67
  YS02001918           JUNCTION     0.16     1.81     8.88     0  02:11        1.35
  YS02001920           JUNCTION     0.24     2.14     9.15     0  02:12        1.43
  YS02001923           JUNCTION     0.11     2.03     9.29     0  02:12        1.21
  YS02001926           JUNCTION     0.16     1.90     9.35     0  02:12        1.02
  YS02001929           JUNCTION     0.08     1.78     9.47     0  02:12        0.78
  YS02006553           JUNCTION     0.70     1.98     8.26     0  02:11        1.97
  YS02006556           JUNCTION     0.67     1.97     8.28     0  02:11        1.96
  YS02006558           JUNCTION     0.71     2.02     8.28     0  02:11        2.00
  YS02006561           JUNCTION     0.16     1.13     7.79     0  02:11        0.91
  YS02163301           JUNCTION     0.50     1.92     8.44     0  02:11        1.89
  YS02163601           JUNCTION     0.59     2.03     8.42     0  02:12        2.00
  YS02164001           JUNCTION     0.52     1.95     8.40     0  02:12        1.93
  CC-1                 OUTFALL      0.00     0.00     0.00     0  00:00        0.00
  CC-2                 OUTFALL      0.00     0.00     0.00     0  00:00        0.00
  JK-1                 OUTFALL      0.00     0.00     0.00     0  00:00        0.00
  JK-2                 OUTFALL      0.00     0.00     0.00     0  00:00        0.00
  WSC                  OUTFALL      0.23     0.35     1.02     0  02:53        0.35
  CC-storage           STORAGE      0.79     1.53     7.03     0  02:30        1.53
  JK-storage           STORAGE      2.82     4.22     5.02     0  02:29        4.21
  XR-storage           STORAGE      7.84     9.26     7.26     0  08:00        9.26
  
  
  *******************
  Node Inflow Summary
  *******************
  
  -------------------------------------------------------------------------------------------------
                                  Maximum  Maximum                  Lateral       Total        Flow
                                  Lateral    Total  Time of Max      Inflow      Inflow     Balance
                                   Inflow   Inflow   Occurrence      Volume      Volume       Error
  Node                 Type           LPS      LPS  days hr:min    10^6 ltr    10^6 ltr     Percent
  -------------------------------------------------------------------------------------------------
  WS02001211           JUNCTION      7.35   200.49     0  03:00       0.212        5.44       0.611
  WS02001212           JUNCTION      0.00   202.62     0  03:00           0        5.41       0.290
  WS02001213           JUNCTION      0.00   204.35     0  03:01           0        5.39       0.332
  WS02003059           JUNCTION      0.00   208.65     0  03:36           0        5.38       0.594
  WS02003060           JUNCTION     16.53   750.84     0  02:43       0.476        8.75       0.164
  WS02003066           JUNCTION      0.00   536.47     0  02:47           0        2.93       0.047
  WS02003067           JUNCTION      0.00   536.45     0  02:47           0        2.93       0.144
  WS02003069           JUNCTION      0.32   750.89     0  02:51     0.00922        8.74       0.174
  WS02003072           JUNCTION      0.00   750.87     0  02:51           0        8.72       0.236
  WS02003073           JUNCTION      1.82   752.68     0  02:52      0.0524        8.75       0.244
  WS02004138           JUNCTION      0.00   380.00     0  00:00           0        5.25       0.053
  WS02004139           JUNCTION      0.32   191.16     0  00:29     0.00924        5.26       0.509
  WS02004401           JUNCTION      0.00   538.41     0  02:38           0        3.03       0.337
  WS02004402           JUNCTION      0.00   538.09     0  02:37           0        3.02       0.342
  WS02004403           JUNCTION      0.00   537.94     0  02:39           0        3.01       0.335
  WS02004404           JUNCTION      0.16   537.52     0  02:37     0.00467        3.01       0.294
  WS02004405           JUNCTION      0.04   537.58     0  02:37      0.0011           3       0.402
  WS02004406           JUNCTION      0.00   537.80     0  02:39           0        2.99       0.699
  WS02004407           JUNCTION      0.00   537.16     0  02:37           0        2.97       0.039
  WS02004409           JUNCTION      0.00   536.88     0  02:38           0        2.96       0.092
  WS02004410           JUNCTION      0.00   536.75     0  02:38           0        2.96       0.149
  WS02004411           JUNCTION      0.00   536.65     0  02:46           0        2.96       0.191
  WS02004412           JUNCTION      0.00   536.56     0  02:46           0        2.95       0.256
  WS02004413           JUNCTION      0.00   536.63     0  02:47           0        2.94       0.454
  WS02006109           JUNCTION      1.23   555.74     0  03:11      0.0354        3.08       0.271
  WS02006110           JUNCTION      0.00   557.06     0  03:11           0        3.07       0.213
  WS02006111           JUNCTION      0.00   562.86     0  03:12           0        3.06       0.029
  WS02006112           JUNCTION      0.00   543.33     0  03:13           0        3.06       0.586
  WS02006113           JUNCTION      0.00   567.45     0  03:11           0        3.06       0.051
  WS02006115           JUNCTION      0.00   546.42     0  02:36           0        3.04       0.215
  WS02006116           JUNCTION      0.00   540.04     0  02:38           0        3.04       0.160
  WS02006228           JUNCTION      0.00   552.29     0  03:11           0        3.05       0.116
  WS02006229           JUNCTION      0.00   551.29     0  03:11           0        3.05       0.163
  WS02006230           JUNCTION     10.28   580.78     0  03:10       0.296        3.06       0.193
  WS02006231           JUNCTION      0.00   568.98     0  03:10           0        2.76      -0.156
  WS02006232           JUNCTION      0.00   567.64     0  03:10           0        2.77       0.415
  WS02006234           JUNCTION      0.00   563.71     0  03:10           0        2.76      -0.312
  WS02006235           JUNCTION      0.00   557.57     0  03:10           0        2.84       0.356
  WS02006238           JUNCTION      0.00   418.68     0  02:52           0        2.02      -0.135
  WS02006239           JUNCTION      0.00   418.55     0  03:15           0        1.98      -0.017
  WS02006240           JUNCTION      0.00   416.60     0  03:15           0        1.93      -0.061
  WS02006242           JUNCTION      0.00   417.04     0  03:15           0         1.9      -0.181
  WS02006243           JUNCTION      0.00   416.68     0  03:15           0        1.89      -0.024
  WS02006245           JUNCTION      0.00   415.64     0  03:15           0        1.89       0.502
  WS02006247           JUNCTION      0.00   415.29     0  03:15           0        1.89      -0.017
  WS02006248           JUNCTION      0.00   415.75     0  03:15           0        1.89      -0.157
  WS02006249           JUNCTION      0.00   458.97     0  00:00           0         2.1       0.653
  WS02006251           JUNCTION      0.08   407.66     0  02:10     0.00222         2.1       0.036
  WS02006252           JUNCTION      0.00   400.00     0  00:00           0        2.09      -0.364
  WS02006256           JUNCTION      0.00   300.00     0  00:00           0        1.23      -0.547
  WSF200               JUNCTION      0.00   536.49     0  02:47           0        2.92       0.021
  YS02001580           JUNCTION      0.00   115.19     0  02:08           0     0.00408      -4.364
  YS02001583           JUNCTION      0.00   179.63     0  02:08           0      0.0149      -5.113
  YS02001586           JUNCTION    482.97   482.97     0  02:15        1.02        1.03       0.124
  YS02001590           JUNCTION      0.00   317.93     0  02:16           0       0.933      -0.037
  YS02001593           JUNCTION      0.00   317.89     0  02:14           0       0.934       0.006
  YS02001596           JUNCTION      0.00   318.06     0  02:21           0       0.934      -0.013
  YS02001600           JUNCTION      0.00   317.90     0  02:15           0       0.934       0.012
  YS02001601           JUNCTION    848.82  1166.54     0  02:14        1.38        2.32       0.028
  YS02001602           JUNCTION      0.00   521.20     0  02:08           0        1.71       0.016
  YS02001605           JUNCTION      0.00   521.12     0  02:08           0        1.65       0.020
  YS02001607           JUNCTION      0.00   520.86     0  02:08           0        1.65       0.105
  YS02001610           JUNCTION      0.00   529.29     0  02:07           0        1.65       0.121
  YS02001613           JUNCTION      0.00   531.95     0  02:07           0        1.45       0.096
  YS02001616           JUNCTION      0.00   529.77     0  02:07           0        1.45       0.015
  YS02001619           JUNCTION    835.87   933.60     0  02:10        1.57        3.02      -0.011
  YS02001622           JUNCTION      0.00   929.53     0  02:10           0        3.02      -0.005
  YS02001625           JUNCTION      0.00   936.62     0  02:15           0        3.03       0.286
  YS02001629           JUNCTION      0.00   931.59     0  02:08           0        2.64       0.015
  YS02001633           JUNCTION    655.41  1372.36     0  02:10        1.04        3.66       0.087
  YS02001641           JUNCTION      0.00  1372.59     0  02:10           0        3.65       0.069
  YS02001644           JUNCTION    561.23  1772.13     0  02:10       0.854         4.5       0.068
  YS02001647           JUNCTION      0.00  1775.06     0  02:10           0        4.46       0.006
  YS02001649           JUNCTION      0.00  2015.23     0  02:10           0        5.27      -0.001
  YS02001652           JUNCTION      0.00   709.34     0  02:14           0       0.815      -0.111
  YS02001655           JUNCTION      0.15   708.90     0  02:14     0.00443       0.815       0.052
  YS02001658           JUNCTION      0.00   708.54     0  02:14           0        0.81      -0.041
  YS02001661           JUNCTION      0.00   756.76     0  02:13           0        0.81       0.028
  YS02001664           JUNCTION    566.25   566.25     0  02:13       0.809       0.809      -0.014
  YS02001745           JUNCTION    347.31   491.72     0  02:12       0.468       0.469       0.285
  YS02001748           JUNCTION      0.04   621.49     0  02:12      0.0013       0.472      -0.406
  YS02001751           JUNCTION      0.01   428.99     0  02:13    0.000317       0.482       0.158
  YS02001754           JUNCTION      0.26   430.45     0  02:13     0.00749       0.498      -0.261
  YS02001757           JUNCTION      0.00  3156.91     0  02:13           0        7.47       0.016
  YS02001759           JUNCTION    505.68  1190.71     0  02:13       0.683        1.71      -0.019
  YS02001762           JUNCTION      0.00   693.10     0  02:14           0        1.02      -0.002
  YS02001765           JUNCTION      0.00   692.90     0  02:13           0        1.02      -0.003
  YS02001767           JUNCTION      0.54   691.99     0  02:13      0.0154        1.02       0.018
  YS02001770           JUNCTION    687.77   689.86     0  02:13        1.01        1.05      -0.017
  YS02001774           JUNCTION      0.00   454.57     0  02:11           0      0.0613       1.617
  YS02001779           JUNCTION      0.01   464.31     0  02:11    0.000144      0.0198      -4.323
  YS02001783           JUNCTION      0.00  1155.41     0  02:12           0        2.78       0.007
  YS02001784           JUNCTION      1.06  1156.50     0  02:13      0.0305        2.81       0.018
  YS02001786           JUNCTION      0.06  1156.22     0  02:12     0.00162        2.81       0.022
  YS02001788           JUNCTION      0.07  1156.60     0  02:12     0.00204        2.82       0.010
  YS02001790           JUNCTION      0.15  1173.80     0  02:12     0.00446        2.82       0.016
  YS02001791           JUNCTION      0.00  1277.05     0  02:16           0        2.82      -0.012
  YS02001793           JUNCTION      0.00  1239.12     0  02:15           0        2.82       0.006
  YS02001882           JUNCTION      0.00    45.94     0  02:10           0      0.0126       3.201
  YS02001884           JUNCTION      0.00    66.96     0  02:08           0      0.0482       4.861
  YS02001887           JUNCTION    541.49   541.49     0  02:13       0.713       0.746       0.571
  YS02001890           JUNCTION      0.00   541.29     0  02:13           0       0.706       0.710
  YS02001895           JUNCTION      0.00   508.40     0  02:14           0       0.696       0.170
  YS02001898           JUNCTION      0.00   507.99     0  02:14           0       0.694       0.032
  YS02001901           JUNCTION      0.00   508.27     0  02:14           0       0.697       0.441
  YS02001904           JUNCTION      0.00   508.57     0  02:14           0       0.701       0.361
  YS02001907           JUNCTION      0.00  1512.68     0  02:13           0        2.14       0.831
  YS02001910           JUNCTION      0.00  1017.32     0  02:13           0        1.44       0.489
  YS02001915           JUNCTION    568.61  1016.80     0  02:13       0.872        1.48       0.090
  YS02001918           JUNCTION      0.00   454.66     0  02:13           0       0.643      -0.039
  YS02001920           JUNCTION      2.87   453.60     0  02:13      0.0827       0.626       0.131
  YS02001923           JUNCTION      0.04   432.90     0  02:11     0.00109       0.527      -0.237
  YS02001926           JUNCTION      0.05   629.68     0  02:12      0.0015       0.507      -0.059
  YS02001929           JUNCTION    291.88   493.90     0  02:12        0.49       0.494      -0.132
  YS02006553           JUNCTION      0.00   794.59     0  02:22           0        1.84       0.635
  YS02006556           JUNCTION      0.00   795.09     0  02:22           0        1.85       0.424
  YS02006558           JUNCTION    688.00  1170.72     0  02:11       0.986        2.81       0.120
  YS02006561           JUNCTION      0.00  1171.47     0  02:11           0        2.78      -0.002
  YS02163301           JUNCTION      0.00   932.57     0  02:10           0        2.63       0.047
  YS02163601           JUNCTION      0.11  1371.28     0  02:10     0.00317        3.65       0.131
  YS02164001           JUNCTION      0.00  1371.04     0  02:10           0        3.65       0.052
  CC-1                 OUTFALL       0.00   683.00     0  00:00           0        3.16       0.000
  CC-2                 OUTFALL       0.00   683.00     0  00:00           0        2.96       0.000
  JK-1                 OUTFALL       0.00  1000.00     0  00:00           0         1.5       0.000
  JK-2                 OUTFALL       0.00  1000.00     0  00:00           0      0.0484       0.000
  WSC                  OUTFALL       0.00   752.67     0  02:53           0        8.73       0.000
  CC-storage           STORAGE       0.00  3158.39     0  02:13           0        9.68      -0.254
  JK-storage           STORAGE       0.00  1261.19     0  02:15           0        2.97       0.224
  XR-storage           STORAGE     200.00   200.00     0  00:00        5.76        6.36       0.001
  
  
  **********************
  Node Surcharge Summary
  **********************
  
  Surcharging occurs when water rises above the top of the highest conduit.
  ---------------------------------------------------------------------
                                               Max. Height   Min. Depth
                                   Hours       Above Crown    Below Rim
  Node                 Type      Surcharged         Meters       Meters
  ---------------------------------------------------------------------
  WS02006109           JUNCTION        1.23          0.253        1.567
  WS02006110           JUNCTION        0.74          0.131        1.719
  WS02006112           JUNCTION        0.69          0.066        1.614
  WS02006228           JUNCTION        1.23          0.273        1.927
  WS02006229           JUNCTION        1.24          0.292        2.158
  WS02006230           JUNCTION        0.74          0.135        1.435
  WS02006231           JUNCTION        0.77          0.302        1.228
  WS02006232           JUNCTION        1.28          0.493        0.987
  WS02006234           JUNCTION        0.88          0.509        0.731
  WS02006235           JUNCTION        1.23          0.610        0.680
  WS02006238           JUNCTION        1.25          0.634        0.796
  WS02006239           JUNCTION        1.22          0.594        0.696
  WS02006240           JUNCTION        1.22          0.580        0.810
  WS02006242           JUNCTION        1.24          0.616        0.204
  WS02006243           JUNCTION        1.22          0.514        0.256
  WS02006245           JUNCTION        1.22          0.518        0.332
  WS02006247           JUNCTION        1.22          0.505        0.255
  WS02006248           JUNCTION        1.21          0.380        0.000
  WS02006249           JUNCTION        1.21          0.390        0.000
  WS02006251           JUNCTION        0.79          0.394        0.786
  WS02006252           JUNCTION        1.37          1.100        0.000
  WS02006256           JUNCTION        3.92          2.050        0.000
  YS02001580           JUNCTION        0.35          0.450        0.000
  YS02001583           JUNCTION        0.35          0.352        0.148
  YS02001586           JUNCTION        0.45          0.510        0.000
  YS02001590           JUNCTION        0.51          0.750        0.000
  YS02001593           JUNCTION        0.51          0.721        0.119
  YS02001596           JUNCTION        0.60          0.956        0.114
  YS02001600           JUNCTION        0.72          1.190        0.000
  YS02001601           JUNCTION        1.04          1.440        0.000
  YS02001602           JUNCTION        0.92          1.270        0.000
  YS02001605           JUNCTION        0.88          1.180        0.000
  YS02001607           JUNCTION        0.49          0.680        0.000
  YS02001610           JUNCTION        0.50          0.680        0.000
  YS02001613           JUNCTION        0.48          0.700        0.000
  YS02001616           JUNCTION        0.45          0.610        0.000
  YS02001619           JUNCTION        0.43          0.610        0.000
  YS02001622           JUNCTION        0.43          0.620        0.000
  YS02001625           JUNCTION        0.58          0.780        0.000
  YS02001629           JUNCTION        0.40          0.470        0.000
  YS02001633           JUNCTION        0.59          0.995        0.065
  YS02001641           JUNCTION        0.53          0.946        0.154
  YS02001644           JUNCTION        0.51          0.920        0.000
  YS02001647           JUNCTION        0.34          0.791        0.109
  YS02001649           JUNCTION        0.43          0.968        0.082
  YS02001652           JUNCTION        0.29          0.837        0.293
  YS02001655           JUNCTION        0.19          0.915        0.285
  YS02001658           JUNCTION        0.07          0.913        0.387
  YS02001661           JUNCTION        0.01          0.283        1.107
  YS02001748           JUNCTION        0.02          0.795        0.395
  YS02001751           JUNCTION        0.11          0.796        0.404
  YS02001754           JUNCTION        0.21          0.736        0.414
  YS02001757           JUNCTION        0.48          1.020        0.190
  YS02001759           JUNCTION        0.40          0.969        0.241
  YS02001762           JUNCTION        0.37          0.965        0.185
  YS02001765           JUNCTION        0.34          0.945        0.155
  YS02001767           JUNCTION        0.32          0.913        0.117
  YS02001770           JUNCTION        0.29          0.920        0.000
  YS02001774           JUNCTION        0.36          0.991        0.059
  YS02001779           JUNCTION        0.22          0.680        0.000
  YS02001783           JUNCTION        0.32          0.539        1.061
  YS02001784           JUNCTION        0.30          0.370        1.120
  YS02001786           JUNCTION        0.21          0.113        1.317
  YS02001882           JUNCTION        0.27          0.830        0.000
  YS02001884           JUNCTION        0.28          0.870        0.000
  YS02001887           JUNCTION        0.31          0.913        0.037
  YS02001890           JUNCTION        0.32          0.760        0.000
  YS02001895           JUNCTION        0.26          0.579        0.171
  YS02001898           JUNCTION        0.26          0.550        0.190
  YS02001901           JUNCTION        0.30          0.700        0.170
  YS02001904           JUNCTION        0.29          0.669        0.181
  YS02001907           JUNCTION        0.49          0.950        0.000
  YS02001910           JUNCTION        0.34          1.100        0.000
  YS02001915           JUNCTION        0.27          1.000        0.000
  YS02001918           JUNCTION        0.20          0.810        0.000
  YS02001920           JUNCTION        0.21          1.140        0.000
  YS02001923           JUNCTION        0.01          0.820        0.000
  YS02001926           JUNCTION        0.01          0.900        0.000
  YS02001929           JUNCTION        0.01          0.780        0.000
  YS02006553           JUNCTION        0.50          0.976        0.214
  YS02006556           JUNCTION        0.41          0.931        0.419
  YS02006558           JUNCTION        0.40          0.916        0.484
  YS02006561           JUNCTION        0.17          0.325        0.825
  YS02163301           JUNCTION        0.58          0.920        0.110
  YS02163601           JUNCTION        0.62          1.027        0.053
  YS02164001           JUNCTION        0.54          0.947        0.153
  
  
  *********************
  Node Flooding Summary
  *********************
  
  Flooding refers to all water that overflows a node, whether it ponds or not.
  --------------------------------------------------------------------------
                                                             Total   Maximum
                                 Maximum   Time of Max       Flood    Ponded
                        Hours       Rate    Occurrence      Volume     Depth
  Node                 Flooded       LPS   days hr:min    10^6 ltr    Meters
  --------------------------------------------------------------------------
  WS02006248              0.01     32.08      0  02:09       0.000     0.000
  WS02006249              0.78    104.87      0  02:10       0.198     0.000
  WS02006252              0.01    245.63      0  00:00       0.000     0.000
  WS02006256              1.14    293.19      0  00:00       0.360     0.000
  YS02001580              0.01     96.35      0  02:08       0.000     0.000
  YS02001586              0.26    165.47      0  02:15       0.085     0.000
  YS02001590              0.01      5.57      0  02:08       0.000     0.000
  YS02001600              0.01      2.16      0  02:08       0.000     0.000
  YS02001601              0.39    768.58      0  02:14       0.608     0.000
  YS02001602              0.32     61.93      0  02:16       0.061     0.000
  YS02001605              0.01      4.07      0  02:08       0.000     0.000
  YS02001607              0.01     16.73      0  02:08       0.000     0.000
  YS02001610              0.26    329.95      0  02:15       0.191     0.000
  YS02001613              0.01     29.78      0  02:08       0.000     0.000
  YS02001616              0.01     43.91      0  02:08       0.000     0.000
  YS02001619              0.01     56.32      0  02:08       0.000     0.000
  YS02001622              0.01     60.77      0  02:08       0.000     0.000
  YS02001625              0.24    935.93      0  02:15       0.396     0.000
  YS02001629              0.05    198.21      0  02:08       0.010     0.000
  YS02001644              0.05    339.75      0  02:13       0.035     0.000
  YS02001770              0.01    126.29      0  02:11       0.000     0.000
  YS02001779              0.02    375.02      0  02:11       0.004     0.000
  YS02001882              0.01     12.37      0  02:10       0.000     0.000
  YS02001884              0.01     10.88      0  02:10       0.000     0.000
  YS02001890              0.05     76.90      0  02:10       0.006     0.000
  YS02001907              0.16   1046.86      0  02:13       0.286     0.000
  YS02001910              0.01     11.73      0  02:10       0.000     0.000
  YS02001915              0.01     62.00      0  02:10       0.000     0.000
  YS02001918              0.01    222.05      0  02:12       0.003     0.000
  YS02001920              0.01     47.09      0  02:12       0.000     0.000
  YS02001923              0.01    170.19      0  02:12       0.001     0.000
  YS02001926              0.01    186.33      0  02:12       0.001     0.000
  YS02001929              0.01    204.75      0  02:12       0.001     0.000
  
  
  **********************
  Storage Volume Summary
  **********************
  
  ------------------------------------------------------------------------------------------------
                         Average    Avg   Evap  Exfil     Maximum    Max    Time of Max    Maximum
                          Volume   Pcnt   Pcnt   Pcnt      Volume   Pcnt     Occurrence    Outflow
  Storage Unit           1000 m³   Full   Loss   Loss     1000 m³   Full    days hr:min        LPS
  ------------------------------------------------------------------------------------------------
  CC-storage               2.202   34.4    0.0    0.0       4.273   66.7       0  02:30    1783.53
  JK-storage               0.142   48.7    0.0    0.0       0.212   72.8       0  02:29    2300.00
  XR-storage               0.940   65.3    0.0    0.0       1.111   77.2       0  08:00     380.00
  
  
  ***********************
  Outfall Loading Summary
  ***********************
  
  -----------------------------------------------------------
                         Flow       Avg       Max       Total
                         Freq      Flow      Flow      Volume
  Outfall Node           Pcnt       LPS       LPS    10^6 ltr
  -----------------------------------------------------------
  CC-1                  27.68    683.00    683.00       3.160
  CC-2                  25.77    683.00    683.00       2.959
  JK-1                  12.32   1000.00   1000.00       1.496
  JK-2                   0.26   1000.00   1000.00       0.048
  WSC                   99.93    360.50    752.67       8.732
  -----------------------------------------------------------
  System                33.19   3726.50   3366.23      16.395
  
  
  ********************
  Link Flow Summary
  ********************
  
  -----------------------------------------------------------------------------
                                 Maximum  Time of Max   Maximum    Max/    Max/
                                  |Flow|   Occurrence   |Veloc|    Full    Full
  Link                 Type          LPS  days hr:min     m/sec    Flow   Depth
  -----------------------------------------------------------------------------
  1                    CONDUIT    752.67     0  02:53      3.08    0.26    0.35
  WS02001211WS02001212 CONDUIT    202.62     0  03:00      0.54    0.15    0.51
  WS02001212WS02001213 CONDUIT    204.35     0  03:01      1.04    0.32    0.36
  WS02001213WS02003059 CONDUIT    208.65     0  03:36      0.47    0.34    0.67
  WS02003059WS02003060 CONDUIT    214.96     0  03:35      0.67    0.14    0.58
  WS02003060WS02003069 CONDUIT    750.57     0  02:51      1.77    0.29    0.40
  WS02003066WSF200     CONDUIT    536.49     0  02:47      2.74    0.09    0.23
  WS02003067WS02003066 CONDUIT    536.47     0  02:47      1.21    0.17    0.42
  WS02003069WS02003072 CONDUIT    750.87     0  02:51      1.51    0.36    0.45
  WS02003072WS02003073 CONDUIT    750.86     0  02:52      1.60    1.62    0.43
  WS02004138WS02004139 CONDUIT    190.84     0  00:29      2.17    0.04    0.33
  WS02004139WS02001211 CONDUIT    193.14     0  03:00      0.54    0.24    0.47
  WS02004401WS02004402 CONDUIT    538.09     0  02:37      0.97    0.65    0.86
  WS02004402WS02004403 CONDUIT    537.94     0  02:39      0.97    0.77    0.88
  WS02004403WS02004404 CONDUIT    537.36     0  02:37      0.92    0.39    0.93
  WS02004404WS02004405 CONDUIT    537.54     0  02:37      1.08    5.27    0.96
  WS02004405WS02004406 CONDUIT    537.80     0  02:39      0.99    1.06    0.96
  WS02004406WS02004407 CONDUIT    537.16     0  02:37      1.04    0.24    0.63
  WS02004407WS02004409 CONDUIT    536.88     0  02:38      1.57    0.19    0.48
  WS02004409WS02004410 CONDUIT    536.75     0  02:38      1.04    0.69    0.67
  WS02004410WS02004411 CONDUIT    536.65     0  02:46      0.95    0.73    0.69
  WS02004411WS02004412 CONDUIT    536.56     0  02:46      0.92    0.76    0.69
  WS02004412WS02004413 CONDUIT    536.63     0  02:47      0.82    0.36    0.78
  WS02004413WS02003067 CONDUIT    536.45     0  02:47      1.11    0.23    0.59
  WS02006109WS02006110 CONDUIT    557.06     0  03:11      1.11    1.07    1.00
  WS02006110WS02006113 CONDUIT    567.45     0  03:11      1.36    0.52    0.78
  WS02006111WS02006112 CONDUIT    543.33     0  03:13      1.82    0.26    0.67
  WS02006112WS02006115 CONDUIT    546.42     0  02:36      0.82    0.32    0.87
  WS02006113WS02006111 CONDUIT    562.86     0  03:12      2.47    0.67    0.46
  WS02006115WS02006116 CONDUIT    540.04     0  02:38      0.97    0.69    0.76
  WS02006116WS02004401 CONDUIT    538.41     0  02:38      0.98    0.74    0.84
  WS02006228WS02006109 CONDUIT    554.51     0  03:11      1.10    2.42    1.00
  WS02006229WS02006228 CONDUIT    552.29     0  03:11      1.15    1.83    1.00
  WS02006230WS02006229 CONDUIT    551.29     0  03:11      1.43   12.27    1.00
  WS02006231WS02006230 CONDUIT    570.50     0  03:10      1.55    8.65    1.00
  WS02006232WS02006231 CONDUIT    568.98     0  03:10      1.48    1.19    1.00
  WS02006234WS02006232 CONDUIT    567.64     0  03:10      1.47    1.15    1.00
  WS02006235WS02006234 CONDUIT    563.71     0  03:10      1.46    5.95    1.00
  WS02006238WS02006235 CONDUIT    420.05     0  02:52      1.57    0.94    1.00
  WS02006239WS02006238 CONDUIT    418.68     0  02:52      1.11    1.34    1.00
  WS02006240WS02006239 CONDUIT    418.55     0  03:15      1.24    1.32    1.00
  WS02006242WS02006240 CONDUIT    416.60     0  03:15      1.12    1.65    1.00
  WS02006243WS02006242 CONDUIT    417.04     0  03:15      1.39    0.89    1.00
  WS02006245WS02006243 CONDUIT    416.68     0  03:15      1.45    1.23    1.00
  WS02006247WS02006245 CONDUIT    415.64     0  03:15      1.44    3.30    1.00
  WS02006248WS02006247 CONDUIT    415.29     0  03:15      1.45    0.90    1.00
  WS02006249WS02006248 CONDUIT    415.75     0  03:15      1.37    2.28    1.00
  WS02006251WS02006249 CONDUIT    458.97     0  00:00      1.99    1.32    1.00
  WS02006252WS02006251 CONDUIT    407.58     0  02:10     25.11    1.50    1.00
  WS02006256WS02006235 CONDUIT    289.22     0  01:59      4.23    3.06    1.00
  WSF200WS02003060     CONDUIT    536.60     0  02:48      1.76    0.12    0.32
  YS02001580YS02001583 CONDUIT    115.19     0  02:08      0.71    0.45    1.00
  YS02001583YS02001586 CONDUIT    169.37     0  02:08      0.73    0.26    1.00
  YS02001586YS02001590 CONDUIT    317.93     0  02:16      1.27    0.56    1.00
  YS02001590YS02001593 CONDUIT    317.89     0  02:14      1.12    2.00    1.00
  YS02001593YS02001596 CONDUIT    318.06     0  02:21      1.74    0.50    1.00
  YS02001596YS02001600 CONDUIT    317.90     0  02:15      1.22    0.62    1.00
  YS02001600YS02001601 CONDUIT    317.87     0  02:15      1.12    0.55    1.00
  YS02001601YS02001602 CONDUIT    521.20     0  02:08      1.84    1.88    1.00
  YS02001602YS02001605 CONDUIT    521.12     0  02:08      1.84   11.03    1.00
  YS02001605YS02001607 CONDUIT    520.86     0  02:08      1.84    2.86    1.00
  YS02001607YS02001610 CONDUIT    529.29     0  02:07      0.67    0.50    1.00
  YS02001610YS02001613 CONDUIT    531.95     0  02:07      0.68    0.61    1.00
  YS02001613YS02001616 CONDUIT    529.77     0  02:07      0.68    0.45    1.00
  YS02001616YS02001619 CONDUIT    496.48     0  02:07      0.66    0.86    1.00
  YS02001619YS02001622 CONDUIT    929.53     0  02:10      1.20    1.37    1.00
  YS02001622YS02001625 CONDUIT    931.76     0  02:08      1.19    0.50    1.00
  YS02001625YS02001629 CONDUIT    931.59     0  02:08      1.19    0.44    1.00
  YS02001629YS02163301 CONDUIT    932.57     0  02:10      1.19    1.15    1.00
  YS02001633YS02163601 CONDUIT   1371.17     0  02:10      1.75    1.44    1.00
  YS02001641YS02001644 CONDUIT   1372.42     0  02:10      1.75    4.44    1.00
  YS02001644YS02001647 CONDUIT   1775.06     0  02:10      2.30    1.04    1.00
  YS02001647YS02001649 CONDUIT   1783.74     0  02:10      2.35    0.94    1.00
  YS02001649YS02001757 CONDUIT   1953.23     0  02:10      2.49    1.19    1.00
  YS02001652YS02001649 CONDUIT    711.58     0  02:14      0.91    0.35    1.00
  YS02001655YS02001652 CONDUIT    709.34     0  02:14      1.32    0.34    1.00
  YS02001658YS02001655 CONDUIT    708.74     0  02:14      1.93    0.30    1.00
  YS02001661YS02001658 CONDUIT    708.54     0  02:14      2.33    0.28    1.00
  YS02001664YS02001661 CONDUIT    756.76     0  02:13      2.32    0.24    0.77
  YS02001745YS02001748 CONDUIT    621.44     0  02:12      2.13    0.24    0.89
  YS02001748YS02001751 CONDUIT    428.98     0  02:13      1.67    0.22    1.00
  YS02001751YS02001754 CONDUIT    430.19     0  02:13      1.45    0.21    1.00
  YS02001754YS02001757 CONDUIT    429.35     0  02:13      0.55    0.17    1.00
  YS02001757CaochengTiaoxuchi CONDUIT   3158.39     0  02:13      4.02    1.37    1.00
  YS02001759YS02001757 CONDUIT   1191.80     0  02:13      1.52    0.85    1.00
  YS02001762YS02001759 CONDUIT    693.83     0  02:13      0.88    0.80    1.00
  YS02001765YS02001762 CONDUIT    693.10     0  02:14      0.88    0.65    1.00
  YS02001767YS02001765 CONDUIT    692.90     0  02:13      0.88    0.87    1.00
  YS02001770YS02001767 CONDUIT    691.45     0  02:13      0.88    2.74    1.00
  YS02001774YS02001770 CONDUIT    454.57     0  02:11      0.58    0.29    1.00
  YS02001779YS02001774 CONDUIT    464.30     0  02:11      0.59    0.23    1.00
  YS02001783YS02001784 CONDUIT   1155.44     0  02:13      2.30    1.59    1.00
  YS02001784YS02001785 CONDUIT   1156.16     0  02:12      2.30    2.69    1.00
  YS02001786YS02001788 CONDUIT   1156.53     0  02:12      2.47    2.23    0.89
  YS02001788YS02001790 CONDUIT   1173.65     0  02:12      2.73    0.86    0.84
  YS02001790YS02001791 CONDUIT   1277.05     0  02:16      3.41    1.39    0.70
  YS02001791YS02001793 CONDUIT   1239.12     0  02:15      6.77    0.53    0.41
  YS02001793JiankangQianchi CONDUIT   1261.19     0  02:15      2.53    0.10    0.62
  YS02001882YS02001884 CONDUIT     45.94     0  02:10      0.10    0.05    1.00
  YS02001884YS02001887 CONDUIT     66.96     0  02:08      0.09    0.09    1.00
  YS02001887YS02001890 CONDUIT    541.29     0  02:13      0.69    0.93    1.00
  YS02001890YS02001895 CONDUIT    508.40     0  02:14      0.65    0.24    1.00
  YS02001895YS02001898 CONDUIT    507.99     0  02:14      0.65    0.88    1.00
  YS02001898YS02001901 CONDUIT    508.27     0  02:14      0.65    0.33    1.00
  YS02001901YS02001904 CONDUIT    508.57     0  02:14      0.65    0.79    1.00
  YS02001904YS02001907 CONDUIT    509.15     0  02:14      0.65    0.18    1.00
  YS02001907YS02006553 CONDUIT    794.59     0  02:22      0.88    0.93    1.00
  YS02001910YS02001907 CONDUIT   1017.46     0  02:13      1.30    0.57    1.00
  YS02001915YS02001910 CONDUIT   1017.32     0  02:13      1.30    0.51    1.00
  YS02001918YS02001915 CONDUIT    455.64     0  02:13      0.58    0.25    1.00
  YS02001920YS02001918 CONDUIT    454.66     0  02:13      0.65    0.44    1.00
  YS02001923YS02001920 CONDUIT    450.73     0  02:13      0.72    0.20    1.00
  YS02001926YS02001923 CONDUIT    417.45     0  02:12      0.99    0.60    1.00
  YS02001929YS02001926 CONDUIT    407.95     0  02:12      1.17    0.19    1.00
  YS02006553YS02006556 CONDUIT    795.09     0  02:22      1.01    0.68    1.00
  YS02006556YS02006558 CONDUIT    796.85     0  02:22      1.01    0.63    1.00
  YS02006558YS02006561 CONDUIT   1171.47     0  02:11      4.14    2.59    1.00
  YS02006561YS02001783 CONDUIT   1155.41     0  02:12      2.30    0.60    1.00
  YS02163301YS02001633 CONDUIT    933.49     0  02:10      1.19    0.88    1.00
  YS02163601YS02164001 CONDUIT   1371.04     0  02:10      1.75    1.21    1.00
  YS02164001YS02001641 CONDUIT   1372.59     0  02:10      1.75    1.87    1.00
  CC-R1                PUMP       683.00     0  00:00              1.00
  CC-R2                PUMP       683.00     0  00:00              1.00
  CC-S1                PUMP       200.00     0  00:00              1.00
  CC-S2                PUMP       200.00     0  00:00              1.00
  JK-R1                PUMP      1000.00     0  00:00              1.00
  JK-R2                PUMP      1000.00     0  00:00              1.00
  JK-S                 PUMP       300.00     0  00:00              1.00
  XR-1                 PUMP        95.00     0  00:00              1.00
  XR-2                 PUMP        95.00     0  00:00              1.00
  XR-3                 PUMP        95.00     0  00:00              1.00
  XR-4                 PUMP        95.00     0  00:00              1.00
  
  
  ***************************
  Flow Classification Summary
  ***************************
  
  -------------------------------------------------------------------------------------
                      Adjusted    ---------- Fraction of Time in Flow Class ---------- 
                       /Actual         Up    Down  Sub   Sup   Up    Down  Norm  Inlet 
  Conduit               Length    Dry  Dry   Dry   Crit  Crit  Crit  Crit  Ltd   Ctrl  
  -------------------------------------------------------------------------------------
  1                       1.00   0.00  0.00  0.00  0.00  1.00  0.00  0.00  0.18  0.00
  WS02001211WS02001212    1.00   0.00  0.02  0.00  0.98  0.00  0.00  0.00  0.00  0.00
  WS02001212WS02001213    1.00   0.02  0.00  0.00  0.17  0.00  0.80  0.00  0.00  0.00
  WS02001213WS02003059    1.00   0.00  0.01  0.00  0.99  0.00  0.00  0.00  0.00  0.00
  WS02003059WS02003060    1.00   0.00  0.00  0.00  1.00  0.00  0.00  0.00  0.03  0.00
  WS02003060WS02003069    1.00   0.00  0.00  0.00  0.98  0.02  0.00  0.00  0.70  0.00
  WS02003066WSF200        1.00   0.13  0.00  0.00  0.00  0.87  0.00  0.00  0.77  0.00
  WS02003067WS02003066    1.00   0.10  0.02  0.00  0.88  0.00  0.00  0.00  0.00  0.00
  WS02003069WS02003072    1.00   0.00  0.00  0.00  1.00  0.00  0.00  0.00  0.80  0.00
  WS02003072WS02003073    1.00   0.00  0.00  0.00  0.00  0.00  0.00  1.00  0.00  0.00
  WS02004138WS02004139    1.00   0.00  0.00  0.00  0.97  0.01  0.00  0.02  0.98  0.00
  WS02004139WS02001211    1.00   0.00  0.00  0.00  0.99  0.00  0.00  0.00  0.00  0.00
  WS02004401WS02004402    1.00   0.02  0.00  0.00  0.98  0.00  0.00  0.00  0.00  0.00
  WS02004402WS02004403    1.00   0.02  0.00  0.00  0.97  0.00  0.00  0.00  0.00  0.00
  WS02004403WS02004404    1.00   0.00  0.03  0.00  0.97  0.00  0.00  0.00  0.00  0.00
  WS02004404WS02004405    1.00   0.00  0.00  0.00  1.00  0.00  0.00  0.00  0.01  0.00
  WS02004405WS02004406    1.00   0.00  0.00  0.00  1.00  0.00  0.00  0.00  0.00  0.00
  WS02004406WS02004407    1.00   0.00  0.05  0.00  0.95  0.00  0.00  0.00  0.00  0.00
  WS02004407WS02004409    1.00   0.05  0.00  0.00  0.94  0.01  0.00  0.00  0.94  0.00
  WS02004409WS02004410    1.00   0.05  0.00  0.00  0.95  0.00  0.00  0.00  0.03  0.00
  WS02004410WS02004411    1.00   0.05  0.00  0.00  0.95  0.00  0.00  0.00  0.01  0.00
  WS02004411WS02004412    1.00   0.05  0.00  0.00  0.95  0.00  0.00  0.00  0.00  0.00
  WS02004412WS02004413    1.00   0.05  0.00  0.00  0.94  0.00  0.00  0.00  0.01  0.00
  WS02004413WS02003067    1.00   0.06  0.04  0.00  0.00  0.00  0.90  0.00  0.00  0.00
  WS02006109WS02006110    1.00   0.00  0.01  0.00  0.98  0.00  0.01  0.00  0.00  0.00
  WS02006110WS02006113    1.00   0.01  0.01  0.00  0.98  0.00  0.00  0.00  0.00  0.00
  WS02006111WS02006112    1.00   0.02  0.00  0.00  0.98  0.00  0.00  0.00  0.98  0.00
  WS02006112WS02006115    1.00   0.02  0.00  0.00  0.97  0.00  0.00  0.00  0.00  0.00
  WS02006113WS02006111    1.00   0.02  0.00  0.00  0.00  0.98  0.00  0.00  0.08  0.00
  WS02006115WS02006116    1.00   0.02  0.00  0.00  0.97  0.00  0.00  0.01  0.00  0.00
  WS02006116WS02004401    1.00   0.02  0.00  0.00  0.98  0.00  0.00  0.00  0.00  0.00
  WS02006228WS02006109    1.00   0.00  0.00  0.00  1.00  0.00  0.00  0.00  0.00  0.00
  WS02006229WS02006228    1.00   0.00  0.00  0.00  0.99  0.00  0.00  0.01  0.00  0.00
  WS02006230WS02006229    1.00   0.00  0.00  0.00  0.99  0.00  0.00  0.01  0.01  0.00
  WS02006231WS02006230    1.00   0.00  0.00  0.00  0.16  0.00  0.83  0.00  0.00  0.00
  WS02006232WS02006231    1.00   0.00  0.00  0.00  0.99  0.00  0.01  0.00  0.00  0.00
  WS02006234WS02006232    1.00   0.00  0.00  0.00  1.00  0.00  0.00  0.00  0.35  0.00
  WS02006235WS02006234    1.00   0.00  0.00  0.00  0.59  0.00  0.41  0.00  0.00  0.00
  WS02006238WS02006235    1.00   0.00  0.00  0.00  1.00  0.00  0.00  0.00  0.00  0.00
  WS02006239WS02006238    1.00   0.00  0.00  0.00  1.00  0.00  0.00  0.00  0.51  0.00
  WS02006240WS02006239    1.00   0.00  0.00  0.00  0.39  0.00  0.00  0.61  0.02  0.00
  WS02006242WS02006240    1.00   0.00  0.00  0.00  1.00  0.00  0.00  0.00  0.00  0.00
  WS02006243WS02006242    1.00   0.00  0.00  0.00  0.99  0.00  0.00  0.01  0.76  0.00
  WS02006245WS02006243    1.00   0.00  0.00  0.00  0.43  0.00  0.00  0.57  0.01  0.00
  WS02006247WS02006245    1.00   0.00  0.00  0.00  0.99  0.00  0.00  0.01  0.00  0.00
  WS02006248WS02006247    1.00   0.00  0.00  0.00  0.99  0.00  0.00  0.01  0.23  0.00
  WS02006249WS02006248    1.00   0.00  0.00  0.00  0.28  0.00  0.72  0.00  0.00  0.00
  WS02006251WS02006249    1.00   0.00  0.00  0.00  0.99  0.01  0.00  0.00  0.76  0.00
  WS02006252WS02006251    1.00   0.00  0.77  0.00  0.10  0.00  0.13  0.00  0.01  0.00
  WS02006256WS02006235    1.00   0.00  0.00  0.00  0.99  0.01  0.00  0.00  0.00  0.00
  WSF200WS02003060        1.00   0.00  0.13  0.00  0.72  0.16  0.00  0.00  0.70  0.00
  YS02001580YS02001583    1.00   0.26  0.58  0.00  0.16  0.00  0.00  0.00  0.67  0.00
  YS02001583YS02001586    1.00   0.50  0.29  0.00  0.21  0.00  0.00  0.00  0.67  0.00
  YS02001586YS02001590    1.00   0.13  0.00  0.00  0.37  0.04  0.00  0.46  0.34  0.00
  YS02001590YS02001593    1.00   0.13  0.01  0.00  0.08  0.00  0.79  0.00  0.00  0.00
  YS02001593YS02001596    1.00   0.14  0.00  0.00  0.09  0.01  0.00  0.77  0.01  0.00
  YS02001596YS02001600    1.00   0.14  0.00  0.00  0.15  0.01  0.00  0.70  0.05  0.00
  YS02001600YS02001601    1.00   0.13  0.01  0.00  0.86  0.00  0.00  0.00  0.65  0.00
  YS02001601YS02001602    1.00   0.13  0.01  0.00  0.86  0.00  0.00  0.00  0.00  0.00
  YS02001602YS02001605    1.00   0.14  0.00  0.00  0.86  0.00  0.00  0.00  0.00  0.00
  YS02001605YS02001607    1.00   0.14  0.00  0.00  0.86  0.00  0.00  0.00  0.00  0.00
  YS02001607YS02001610    1.00   0.13  0.01  0.00  0.86  0.00  0.00  0.00  0.02  0.00
  YS02001610YS02001613    1.00   0.13  0.00  0.00  0.87  0.00  0.00  0.00  0.01  0.00
  YS02001613YS02001616    1.00   0.13  0.00  0.00  0.87  0.00  0.00  0.00  0.01  0.00
  YS02001616YS02001619    1.00   0.13  0.00  0.00  0.87  0.00  0.00  0.00  0.00  0.00
  YS02001619YS02001622    1.00   0.13  0.00  0.00  0.87  0.00  0.00  0.00  0.35  0.00
  YS02001622YS02001625    1.00   0.13  0.00  0.00  0.87  0.00  0.00  0.00  0.06  0.00
  YS02001625YS02001629    1.00   0.13  0.06  0.00  0.11  0.00  0.70  0.00  0.00  0.00
  YS02001629YS02163301    1.00   0.16  0.01  0.00  0.82  0.00  0.00  0.00  0.00  0.00
  YS02001633YS02163601    1.00   0.00  0.01  0.00  0.99  0.00  0.00  0.00  0.15  0.00
  YS02001641YS02001644    1.00   0.00  0.01  0.00  0.99  0.00  0.00  0.00  0.00  0.00
  YS02001644YS02001647    1.00   0.00  0.19  0.00  0.81  0.00  0.00  0.00  0.00  0.00
  YS02001647YS02001649    1.00   0.00  0.19  0.00  0.54  0.28  0.00  0.00  0.59  0.00
  YS02001649YS02001757    1.00   0.00  0.00  0.00  0.70  0.30  0.00  0.00  0.56  0.00
  YS02001652YS02001649    1.00   0.00  0.00  0.00  0.96  0.04  0.00  0.00  0.80  0.00
  YS02001655YS02001652    1.00   0.00  0.00  0.00  0.12  0.02  0.00  0.86  0.04  0.00
  YS02001658YS02001655    1.00   0.00  0.15  0.00  0.64  0.22  0.00  0.00  0.74  0.00
  YS02001661YS02001658    1.00   0.15  0.00  0.00  0.50  0.35  0.00  0.00  0.74  0.00
  YS02001664YS02001661    1.00   0.13  0.00  0.00  0.79  0.09  0.00  0.00  0.86  0.00
  YS02001745YS02001748    1.00   0.00  0.00  0.00  0.05  0.01  0.00  0.94  0.03  0.00
  YS02001748YS02001751    1.00   0.00  0.00  0.00  0.83  0.17  0.00  0.00  0.80  0.00
  YS02001751YS02001754    1.00   0.00  0.00  0.00  0.10  0.00  0.00  0.89  0.02  0.00
  YS02001754YS02001757    1.00   0.00  0.00  0.00  1.00  0.00  0.00  0.00  0.88  0.00
  YS02001757CaochengTiaoxuchi    1.00   0.00  0.00  0.00  1.00  0.00  0.00  0.00  0.88  0.00
  YS02001759YS02001757    1.00   0.00  0.00  0.00  1.00  0.00  0.00  0.00  0.64  0.00
  YS02001762YS02001759    1.00   0.00  0.00  0.00  1.00  0.00  0.00  0.00  0.05  0.00
  YS02001765YS02001762    1.00   0.00  0.00  0.00  1.00  0.00  0.00  0.00  0.78  0.00
  YS02001767YS02001765    1.00   0.00  0.00  0.00  1.00  0.00  0.00  0.00  0.00  0.00
  YS02001770YS02001767    1.00   0.00  0.00  0.00  1.00  0.00  0.00  0.00  0.00  0.00
  YS02001774YS02001770    1.00   0.00  0.14  0.00  0.59  0.00  0.27  0.00  0.04  0.00
  YS02001779YS02001774    1.00   0.00  0.00  0.00  1.00  0.00  0.00  0.00  0.82  0.00
  YS02001783YS02001784    1.00   0.00  0.20  0.00  0.80  0.00  0.00  0.00  0.58  0.00
  YS02001784YS02001785    1.00   0.00  0.00  0.00  1.00  0.00  0.00  0.00  0.18  0.00
  YS02001786YS02001788    1.00   0.00  0.00  0.00  0.81  0.19  0.00  0.00  0.00  0.00
  YS02001788YS02001790    1.00   0.00  0.00  0.00  0.22  0.78  0.00  0.00  0.85  0.00
  YS02001790YS02001791    1.00   0.00  0.00  0.00  0.01  0.99  0.00  0.00  0.15  0.00
  YS02001791YS02001793    1.00   0.00  0.00  0.00  0.00  1.00  0.00  0.00  0.00  0.00
  YS02001793JiankangQianchi    1.00   0.00  0.00  0.00  0.98  0.02  0.00  0.00  0.99  0.00
  YS02001882YS02001884    1.00   0.16  0.01  0.00  0.83  0.00  0.00  0.00  0.00  0.00
  YS02001884YS02001887    1.00   0.06  0.05  0.00  0.89  0.00  0.00  0.00  0.00  0.00
  YS02001887YS02001890    1.00   0.00  0.00  0.00  0.97  0.00  0.03  0.00  0.00  0.00
  YS02001890YS02001895    1.00   0.00  0.17  0.00  0.82  0.00  0.00  0.00  0.00  0.00
  YS02001895YS02001898    1.00   0.18  0.00  0.00  0.80  0.00  0.02  0.00  0.00  0.00
  YS02001898YS02001901    1.00   0.18  0.00  0.00  0.82  0.00  0.00  0.00  0.01  0.00
  YS02001901YS02001904    1.00   0.18  0.00  0.00  0.82  0.00  0.00  0.00  0.00  0.00
  YS02001904YS02001907    1.00   0.00  0.17  0.00  0.82  0.00  0.00  0.00  0.00  0.00
  YS02001907YS02006553    1.00   0.00  0.02  0.00  0.98  0.00  0.00  0.00  0.00  0.00
  YS02001910YS02001907    1.00   0.00  0.00  0.00  0.97  0.00  0.00  0.03  0.12  0.00
  YS02001915YS02001910    1.00   0.00  0.00  0.00  0.96  0.04  0.00  0.00  0.17  0.00
  YS02001918YS02001915    1.00   0.00  0.01  0.00  0.98  0.02  0.00  0.00  0.79  0.00
  YS02001920YS02001918    1.00   0.00  0.01  0.00  0.99  0.00  0.00  0.00  0.00  0.00
  YS02001923YS02001920    1.00   0.00  0.00  0.00  1.00  0.00  0.00  0.00  0.95  0.00
  YS02001926YS02001923    1.00   0.00  0.07  0.00  0.03  0.00  0.89  0.00  0.00  0.00
  YS02001929YS02001926    1.00   0.00  0.13  0.00  0.87  0.00  0.00  0.00  0.85  0.00
  YS02006553YS02006556    1.00   0.01  0.00  0.00  0.99  0.00  0.00  0.00  0.03  0.00
  YS02006556YS02006558    1.00   0.00  0.00  0.00  1.00  0.00  0.00  0.00  0.00  0.00
  YS02006558YS02006561    1.00   0.19  0.00  0.00  0.03  0.77  0.00  0.00  0.17  0.00
  YS02006561YS02001783    1.00   0.19  0.00  0.00  0.06  0.75  0.00  0.00  0.71  0.00
  YS02163301YS02001633    1.00   0.00  0.16  0.00  0.84  0.00  0.00  0.00  0.00  0.00
  YS02163601YS02164001    1.00   0.00  0.08  0.00  0.92  0.00  0.00  0.00  0.00  0.00
  YS02164001YS02001641    1.00   0.01  0.07  0.00  0.92  0.00  0.00  0.00  0.06  0.00
  
  
  *************************
  Conduit Surcharge Summary
  *************************
  
  ----------------------------------------------------------------------------
                                                           Hours        Hours 
                         --------- Hours Full --------   Above Full   Capacity
  Conduit                Both Ends  Upstream  Dnstream   Normal Flow   Limited
  ----------------------------------------------------------------------------
  WS02003072WS02003073        0.01      0.01      0.01      1.36         0.01
  WS02004404WS02004405        0.01      0.01      0.01      1.73         0.01
  WS02004405WS02004406        0.01      0.01      0.01      0.66         0.01
  WS02006109WS02006110        0.74      0.74      1.27      0.77         0.01
  WS02006110WS02006113        0.01      0.01      1.25      0.01         0.01
  WS02006111WS02006112        0.01      0.01      1.32      0.01         0.01
  WS02006112WS02006115        0.01      0.01      0.69      0.01         0.01
  WS02006228WS02006109        1.23      1.27      1.23      1.40         1.23
  WS02006229WS02006228        1.23      1.24      1.23      1.35         1.22
  WS02006230WS02006229        1.30      1.32      1.30      2.37         1.30
  WS02006231WS02006230        0.74      0.74      0.78      1.99         0.01
  WS02006232WS02006231        0.77      0.77      1.28      0.79         0.01
  WS02006234WS02006232        1.21      1.21      1.28      0.78         0.79
  WS02006235WS02006234        0.88      0.88      1.22      1.80         0.01
  WS02006238WS02006235        1.24      1.24      1.27      0.01         0.01
  WS02006239WS02006238        1.24      1.24      1.25      1.25         1.12
  WS02006240WS02006239        1.22      1.23      1.22      1.25         1.05
  WS02006242WS02006240        1.22      1.22      1.24      1.30         0.01
  WS02006243WS02006242        1.22      1.22      1.24      0.01         0.01
  WS02006245WS02006243        1.22      1.22      1.22      0.50         0.60
  WS02006247WS02006245        1.22      1.22      1.22      1.48         1.21
  WS02006248WS02006247        1.21      1.21      1.22      0.01         0.01
  WS02006249WS02006248        1.21      1.21      1.21      1.46         0.01
  WS02006251WS02006249        1.21      1.21      1.21      1.30         1.19
  WS02006252WS02006251        1.37      1.37      1.37      1.37         0.01
  WS02006256WS02006235        1.85      1.87      3.91      1.15         0.01
  YS02001580YS02001583        0.35      0.35      0.38      0.01         0.01
  YS02001583YS02001586        0.35      0.35      0.45      0.01         0.01
  YS02001586YS02001590        0.46      0.46      0.51      0.01         0.01
  YS02001590YS02001593        0.51      0.51      0.53      0.54         0.01
  YS02001593YS02001596        0.52      0.52      0.60      0.01         0.01
  YS02001596YS02001600        0.64      0.64      0.72      0.01         0.01
  YS02001600YS02001601        0.77      0.77      1.04      0.01         0.01
  YS02001601YS02001602        0.92      0.92      1.08      0.72         0.01
  YS02001602YS02001605        0.88      0.88      0.92      1.88         0.01
  YS02001605YS02001607        0.83      0.88      0.83      0.99         0.83
  YS02001607YS02001610        0.49      0.49      0.50      0.01         0.01
  YS02001610YS02001613        0.48      0.48      0.50      0.01         0.01
  YS02001613YS02001616        0.45      0.45      0.48      0.01         0.01
  YS02001616YS02001619        0.43      0.43      0.45      0.01         0.01
  YS02001619YS02001622        0.43      0.43      0.43      0.53         0.42
  YS02001622YS02001625        0.43      0.43      0.58      0.01         0.01
  YS02001625YS02001629        0.40      0.40      0.58      0.01         0.01
  YS02001629YS02163301        0.57      0.57      0.58      0.14         0.13
  YS02001633YS02163601        0.59      0.59      0.62      0.28         0.28
  YS02001641YS02001644        0.51      0.53      0.51      1.14         0.51
  YS02001644YS02001647        0.34      0.34      0.51      0.03         0.01
  YS02001647YS02001649        0.34      0.34      0.43      0.01         0.01
  YS02001649YS02001757        0.42      0.43      0.48      0.06         0.05
  YS02001652YS02001649        0.30      0.30      0.43      0.01         0.01
  YS02001655YS02001652        0.19      0.19      0.29      0.01         0.01
  YS02001658YS02001655        0.07      0.07      0.19      0.01         0.01
  YS02001661YS02001658        0.01      0.01      0.07      0.01         0.01
  YS02001664YS02001661        0.01      0.01      0.01      0.01         0.01
  YS02001745YS02001748        0.01      0.01      0.01      0.01         0.01
  YS02001748YS02001751        0.05      0.05      0.11      0.01         0.01
  YS02001751YS02001754        0.11      0.11      0.22      0.01         0.01
  YS02001754YS02001757        0.25      0.25      0.48      0.01         0.01
  YS02001757CaochengTiaoxuchi        0.48      0.48      0.98      0.19         0.19
  YS02001759YS02001757        0.40      0.40      0.48      0.01         0.01
  YS02001762YS02001759        0.37      0.37      0.40      0.01         0.01
  YS02001765YS02001762        0.34      0.34      0.37      0.01         0.01
  YS02001767YS02001765        0.32      0.32      0.34      0.01         0.01
  YS02001770YS02001767        0.31      0.31      0.32      0.32         0.22
  YS02001774YS02001770        0.29      0.29      0.36      0.01         0.01
  YS02001779YS02001774        0.22      0.22      0.36      0.01         0.01
  YS02001783YS02001784        0.30      0.32      0.30      0.43         0.30
  YS02001784YS02001785        0.21      0.30      0.21      0.60         0.21
  YS02001786YS02001788        0.01      0.21      0.01      0.52         0.01
  YS02001790YS02001791        0.01      0.01      0.01      0.29         0.01
  YS02001793JiankangQianchi        0.01      0.01      7.70      0.01         0.01
  YS02001882YS02001884        0.27      0.27      0.28      0.01         0.01
  YS02001884YS02001887        0.30      0.30      0.31      0.01         0.01
  YS02001887YS02001890        0.32      0.32      0.33      0.01         0.01
  YS02001890YS02001895        0.26      0.26      0.34      0.01         0.01
  YS02001895YS02001898        0.26      0.26      0.26      0.01         0.01
  YS02001898YS02001901        0.27      0.27      0.30      0.01         0.01
  YS02001901YS02001904        0.29      0.29      0.30      0.01         0.01
  YS02001904YS02001907        0.29      0.29      0.50      0.01         0.01
  YS02001907YS02006553        0.61      0.61      0.66      0.01         0.01
  YS02001910YS02001907        0.34      0.34      0.49      0.01         0.01
  YS02001915YS02001910        0.27      0.27      0.34      0.01         0.01
  YS02001918YS02001915        0.20      0.20      0.27      0.01         0.01
  YS02001920YS02001918        0.20      0.20      0.21      0.01         0.01
  YS02001923YS02001920        0.16      0.16      0.21      0.01         0.01
  YS02001926YS02001923        0.01      0.01      0.01      0.01         0.01
  YS02001929YS02001926        0.01      0.01      0.01      0.01         0.01
  YS02006553YS02006556        0.41      0.41      0.50      0.01         0.01
  YS02006556YS02006558        0.46      0.46      0.51      0.01         0.01
  YS02006558YS02006561        0.23      0.40      0.23      0.57         0.23
  YS02006561YS02001783        0.17      0.17      0.32      0.01         0.01
  YS02163301YS02001633        0.58      0.58      0.61      0.01         0.01
  YS02163601YS02164001        0.54      0.54      0.62      0.06         0.01
  YS02164001YS02001641        0.53      0.54      0.53      0.55         0.45
  
  
  ***************
  Pumping Summary
  ***************
  
  ---------------------------------------------------------------------------------------------------------
                                                  Min       Avg       Max     Total     Power    % Time Off
                        Percent   Number of      Flow      Flow      Flow    Volume     Usage    Pump Curve
  Pump                 Utilized   Start-Ups       LPS       LPS       LPS  10^6 ltr     Kw-hr    Low   High
  ---------------------------------------------------------------------------------------------------------
  CC-R1                   16.06          13      0.00    683.00    683.00     3.159     57.44    0.0   30.5
  CC-R2                   15.04          13      0.00    683.00    683.00     2.958     53.72    0.0   32.6
  CC-S1                   19.15          13      0.00    200.00    200.00     1.103      6.62    0.0    0.0
  CC-S2                   17.15          13      0.00    200.00    200.00     0.988      5.93    0.0    0.0
  JK-R1                    5.19           6      0.00   1000.00   1000.00     1.495     14.01    0.0    0.0
  JK-R2                    0.16           1      0.00   1000.00   1000.00     0.047      0.36    0.0    0.0
  JK-S                    14.26           8      0.00    300.00    300.00     1.232     19.57    0.0    0.0
  XR-1                    97.91           2      0.00     95.00     95.00     2.679      9.60    0.0    0.0
  XR-2                    93.94           2      0.00     95.00     95.00     2.570      8.76    0.0    0.0
  XR-3                     0.00           1      0.00     95.00     95.00     0.000      0.00    0.0    0.0
  XR-4                     0.00           1      0.00     95.00     95.00     0.000      0.00    0.0    0.0
  

  Analysis begun on:  Wed Nov  5 16:32:16 2025
  Analysis ended on:  Wed Nov  5 16:32:19 2025
  Total elapsed time: 00:00:03