
  EPA STORM WATER MANAGEMENT MODEL - VERSION 5.2 (Build 5.2.4)
  PYSWMM TOOLKIT API - VERSION v1.0 (2023-11-27)
  ------------------------------------------------------------

  WARNING 04: minimum elevation drop used for Conduit WS02004404WS02004405
  WARNING 03: negative offset ignored for Link YS02001904YS02001907
  
  ****************
  Analysis Options
  ****************
  Flow Units ............... LPS
  Process Models:
    Rainfall/Runoff ........ YES
    RDII ................... NO
    Snowmelt ............... NO
    Groundwater ............ NO
    Flow Routing ........... YES
    Ponding Allowed ........ NO
    Water Quality .......... NO
  Infiltration Method ...... HORTON
  Flow Routing Method ...... DYNWAVE
  Surcharge Method ......... EXTRAN
  Starting Date ............ 08/28/2015 08:00:00
  Ending Date .............. 08/28/2015 16:00:00
  Antecedent Dry Days ...... 8.0
  Report Time Step ......... 00:01:00
  Wet Time Step ............ 00:01:00
  Dry Time Step ............ 00:01:00
  Routing Time Step ........ 30.00 sec
  Variable Time Step ....... YES
  Maximum Trials ........... 8
  Number of Threads ........ 4
  Head Tolerance ........... 0.001500 m
  
  
  **************************        Volume         Depth
  Runoff Quantity Continuity     hectare-m            mm
  **************************     ---------       -------
  Initial LID Storage ......         0.049         1.488
  Total Precipitation ......         1.011        30.487
  Evaporation Loss .........         0.000         0.000
  Infiltration Loss ........         0.068         2.054
  Surface Runoff ...........         0.705        21.244
  Final Storage ............         0.288         8.685
  Continuity Error (%) .....        -0.025
  
  
  **************************        Volume        Volume
  Flow Routing Continuity        hectare-m      10^6 ltr
  **************************     ---------     ---------
  Dry Weather Inflow .......         0.602         6.020
  Wet Weather Inflow .......         0.705         7.046
  Groundwater Inflow .......         0.000         0.000
  RDII Inflow ..............         0.000         0.000
  External Inflow ..........         0.105         1.045
  External Outflow .........         1.330        13.301
  Flooding Loss ............         0.058         0.579
  Evaporation Loss .........         0.000         0.000
  Exfiltration Loss ........         0.000         0.000
  Initial Stored Volume ....         0.303         3.031
  Final Stored Volume ......         0.331         3.309
  Continuity Error (%) .....        -0.277
  
  
  *************************
  Highest Continuity Errors
  *************************
  Node YS02001583 (-6.17%)
  Node YS02001884 (5.40%)
  Node YS02001774 (2.25%)
  Node YS02001907 (1.33%)
  Node YS02001890 (1.18%)
  
  
  ***************************
  Time-Step Critical Elements
  ***************************
  Link WS02004404WS02004405 (44.92%)
  Link WS02006238WS02006235 (17.17%)
  Link WS02006252WS02006251 (9.50%)
  Link WS02003066WSF200 (7.13%)
  Link WS02006235WS02006234 (5.44%)
  
  
  ********************************
  Highest Flow Instability Indexes
  ********************************
  Link WS02006113WS02006111 (27)
  Link WS02006111WS02006112 (16)
  Link WS02006238WS02006235 (11)
  Link WS02006252WS02006251 (10)
  Link WS02006110WS02006113 (10)
  
  
  *********************************
  Most Frequent Nonconverging Nodes
  *********************************
  Node CC-1 (11.88%)
  Node CC-2 (11.88%)
  Node JK-1 (11.88%)
  Node JK-2 (11.88%)
  Node WSC (11.88%)
  
  
  *************************
  Routing Time Step Summary
  *************************
  Minimum Time Step           :     0.01 sec
  Average Time Step           :     3.70 sec
  Maximum Time Step           :     7.04 sec
  % of Time in Steady State   :     0.00
  Average Iterations per Step :     2.98
  % of Steps Not Converging   :    11.88
  Time Step Frequencies       :
     30.000 - 13.228 sec      :     0.00 %
     13.228 -  5.833 sec      :    31.53 %
      5.833 -  2.572 sec      :    30.88 %
      2.572 -  1.134 sec      :    21.68 %
      1.134 -  0.500 sec      :    15.91 %
  
  
  ***************************
  Subcatchment Runoff Summary
  ***************************
  
  ------------------------------------------------------------------------------------------------------------------------------
                            Total      Total      Total      Total     Imperv       Perv      Total       Total     Peak  Runoff
                           Precip      Runon       Evap      Infil     Runoff     Runoff     Runoff      Runoff   Runoff   Coeff
  Subcatchment                 mm         mm         mm         mm         mm         mm         mm    10^6 ltr      LPS
  ------------------------------------------------------------------------------------------------------------------------------
  sub60                     30.49       0.00       0.00       1.24      19.78       1.59      21.36        0.28   194.05   0.701
  sub61                     30.49       0.00       0.00       1.90      19.76       2.34      22.10        0.41   279.74   0.725
  sub62                     30.49       0.00       0.00       0.84      21.06       1.08      22.13        0.61   386.57   0.726
  sub63                     30.49       0.00       0.00       3.49      16.92       3.75      20.67        0.47   304.98   0.678
  sub64                     30.49       0.00       0.00       1.67      19.26       1.89      21.15        0.51   305.63   0.694
  sub65                     30.49       0.00       0.00       1.54      20.78       1.72      22.50        0.62   354.07   0.738
  sub66                     30.49       0.00       0.00       4.02      16.34       3.00      19.33        0.90   435.51   0.634
  sub67                     30.49       0.00       0.00       0.84      21.60       1.13      22.73        0.42   308.66   0.745
  sub68                     30.49       0.00       0.00       1.46      19.07       1.79      20.86        0.57   382.61   0.684
  sub69                     30.49       0.00       0.00       1.29      20.46       2.33      22.79        0.84   465.23   0.747
  sub70                     30.49       0.00       0.00       4.29      16.37       4.20      20.57        0.59   253.98   0.675
  sub71                     30.49       0.00       0.00       0.78      19.12       0.97      20.09        0.53   314.47   0.659
  sub72                     30.49       0.00       0.00       0.74      20.64       0.89      21.53        0.30   158.81   0.706
  

  ***********************
  LID Performance Summary
  ***********************

  --------------------------------------------------------------------------------------------------------------------
                                         Total      Evap     Infil   Surface    Drain    Initial     Final  Continuity
                                        Inflow      Loss      Loss   Outflow   Outflow   Storage   Storage       Error
  Subcatchment      LID Control             mm        mm        mm        mm        mm        mm        mm           %
  --------------------------------------------------------------------------------------------------------------------
  sub60             GreenRoof            30.49      0.00      0.00      0.00      0.00      7.05     37.55       -0.04
  sub61             GreenRoof            30.49      0.00      0.00      0.00      0.00      7.05     37.55       -0.04
  sub62             GreenRoof            30.49      0.00      0.00      0.00      0.00      7.05     37.55       -0.04
  sub63             GreenRoof            30.49      0.00      0.00      0.00      0.00      7.05     37.55       -0.04
  sub64             GreenRoof            30.49      0.00      0.00      0.00      0.00      7.05     37.55       -0.04
  sub65             GreenRoof            30.49      0.00      0.00      0.00      0.00      7.05     37.55       -0.04
  sub66             GreenRoof            30.49      0.00      0.00      0.00      0.00      7.05     37.55       -0.04
  sub67             GreenRoof            30.49      0.00      0.00      0.00      0.00      7.05     37.55       -0.04
  sub68             GreenRoof            30.49      0.00      0.00      0.00      0.00      7.05     37.55       -0.04
  sub69             GreenRoof            30.49      0.00      0.00      0.00      0.00      7.05     37.55       -0.04
  sub70             GreenRoof            30.49      0.00      0.00      0.00      0.00      7.05     37.55       -0.04
  sub71             GreenRoof            30.49      0.00      0.00      0.00      0.00      7.05     37.55       -0.04
  sub72             GreenRoof            30.49      0.00      0.00      0.00      0.00      7.05     37.55       -0.04
  
  ******************
  Node Depth Summary
  ******************
  
  ---------------------------------------------------------------------------------
                                 Average  Maximum  Maximum  Time of Max    Reported
                                   Depth    Depth      HGL   Occurrence   Max Depth
  Node                 Type       Meters   Meters   Meters  days hr:min      Meters
  ---------------------------------------------------------------------------------
  WS02001211           JUNCTION     0.60     0.64     5.48     0  02:53        0.64
  WS02001212           JUNCTION     0.33     0.38     5.45     0  02:52        0.38
  WS02001213           JUNCTION     0.52     0.65     5.41     0  02:48        0.65
  WS02003059           JUNCTION     0.58     0.72     5.40     0  02:49        0.72
  WS02003060           JUNCTION     0.29     0.45     5.38     0  02:46        0.45
  WS02003066           JUNCTION     0.15     0.30     5.85     0  02:44        0.30
  WS02003067           JUNCTION     0.41     0.70     6.02     0  02:43        0.70
  WS02003069           JUNCTION     0.32     0.51     5.10     0  02:52        0.51
  WS02003072           JUNCTION     0.39     0.58     4.95     0  02:52        0.58
  WS02003073           JUNCTION     0.23     0.35     4.41     0  02:52        0.35
  WS02004138           JUNCTION     0.13     0.14     7.39     0  00:29        0.14
  WS02004139           JUNCTION     0.53     0.58     5.49     0  02:54        0.58
  WS02004401           JUNCTION     0.50     0.85     6.85     0  02:32        0.85
  WS02004402           JUNCTION     0.53     0.88     6.84     0  02:32        0.88
  WS02004403           JUNCTION     0.56     0.89     6.82     0  02:32        0.89
  WS02004404           JUNCTION     0.63     0.96     6.81     0  02:32        0.96
  WS02004405           JUNCTION     0.63     0.96     6.81     0  02:32        0.96
  WS02004406           JUNCTION     0.64     0.96     6.79     0  02:33        0.96
  WS02004407           JUNCTION     0.13     0.30     6.61     0  02:33        0.30
  WS02004409           JUNCTION     0.29     0.67     6.44     0  02:42        0.67
  WS02004410           JUNCTION     0.32     0.68     6.40     0  02:43        0.68
  WS02004411           JUNCTION     0.34     0.69     6.37     0  02:43        0.69
  WS02004412           JUNCTION     0.37     0.70     6.34     0  02:43        0.70
  WS02004413           JUNCTION     0.52     0.86     6.33     0  02:43        0.86
  WS02006109           JUNCTION     0.55     1.19     7.81     0  02:51        1.19
  WS02006110           JUNCTION     0.56     1.08     7.66     0  02:51        1.08
  WS02006111           JUNCTION     0.13     0.29     6.99     0  02:20        0.29
  WS02006112           JUNCTION     0.64     1.10     6.98     0  03:01        1.05
  WS02006113           JUNCTION     0.20     0.46     7.35     0  02:57        0.46
  WS02006115           JUNCTION     0.38     0.75     6.89     0  02:32        0.75
  WS02006116           JUNCTION     0.47     0.83     6.87     0  02:32        0.83
  WS02006228           JUNCTION     0.54     1.21     7.86     0  02:51        1.21
  WS02006229           JUNCTION     0.51     1.17     7.86     0  02:51        1.17
  WS02006230           JUNCTION     0.51     1.28     8.03     0  02:50        1.16
  WS02006231           JUNCTION     0.32     1.00     8.13     0  02:50        0.92
  WS02006232           JUNCTION     0.44     1.17     8.21     0  02:50        1.13
  WS02006234           JUNCTION     0.37     1.44     8.59     0  02:16        1.15
  WS02006235           JUNCTION     0.41     1.27     8.43     0  02:50        1.25
  WS02006238           JUNCTION     0.43     1.31     8.45     0  02:50        1.29
  WS02006239           JUNCTION     0.39     1.31     8.51     0  02:50        1.27
  WS02006240           JUNCTION     0.38     1.27     8.56     0  02:50        1.24
  WS02006242           JUNCTION     0.43     1.32     8.59     0  02:50        1.30
  WS02006243           JUNCTION     0.36     1.21     8.63     0  02:50        1.19
  WS02006245           JUNCTION     0.37     1.17     8.66     0  02:50        1.16
  WS02006247           JUNCTION     0.39     1.31     8.81     0  03:12        1.31
  WS02006248           JUNCTION     0.36     1.10     8.69     0  03:12        1.10
  WS02006249           JUNCTION     0.39     1.09     8.69     0  02:17        1.09
  WS02006251           JUNCTION     0.38     1.38     9.05     0  02:17        1.13
  WS02006252           JUNCTION     0.26     1.50     9.74     0  00:00        0.69
  WS02006256           JUNCTION     0.96     2.35     9.28     0  00:00        2.35
  WSF200               JUNCTION     0.12     0.31     5.54     0  02:44        0.31
  YS02001580           JUNCTION     0.04     1.05     9.59     0  02:13        1.05
  YS02001583           JUNCTION     0.07     1.14     9.64     0  02:13        1.00
  YS02001586           JUNCTION     0.14     1.13     9.30     0  02:13        1.13
  YS02001590           JUNCTION     0.23     1.40     9.26     0  02:11        1.37
  YS02001593           JUNCTION     0.17     1.40     9.26     0  02:11        1.30
  YS02001596           JUNCTION     0.25     1.68     9.10     0  02:13        1.66
  YS02001600           JUNCTION     0.32     1.87     9.00     0  02:13        1.86
  YS02001601           JUNCTION     0.51     2.06     8.90     0  02:11        2.06
  YS02001602           JUNCTION     0.42     1.87     8.77     0  02:13        1.87
  YS02001605           JUNCTION     0.38     1.78     8.68     0  02:13        1.67
  YS02001607           JUNCTION     0.36     1.68     8.53     0  02:13        1.36
  YS02001610           JUNCTION     0.40     1.68     8.48     0  02:13        1.40
  YS02001613           JUNCTION     0.36     1.67     8.51     0  02:13        1.34
  YS02001616           JUNCTION     0.29     1.61     8.52     0  02:13        1.26
  YS02001619           JUNCTION     0.27     1.61     8.54     0  02:13        1.23
  YS02001622           JUNCTION     0.26     1.62     8.52     0  02:13        1.22
  YS02001625           JUNCTION     0.51     1.78     8.38     0  02:13        1.46
  YS02001629           JUNCTION     0.38     1.85     8.40     0  02:13        1.46
  YS02001633           JUNCTION     0.45     1.81     8.27     0  02:13        1.47
  YS02001641           JUNCTION     0.43     1.45     7.88     0  02:13        1.24
  YS02001644           JUNCTION     0.42     1.32     7.75     0  02:13        1.17
  YS02001647           JUNCTION     0.21     0.88     7.49     0  02:19        0.88
  YS02001649           JUNCTION     0.25     1.04     7.43     0  02:20        1.03
  YS02001652           JUNCTION     0.14     0.85     7.44     0  02:20        0.84
  YS02001655           JUNCTION     0.09     0.58     7.43     0  02:20        0.57
  YS02001658           JUNCTION     0.06     0.25     7.39     0  02:14        0.24
  YS02001661           JUNCTION     0.12     0.30     7.71     0  02:14        0.30
  YS02001664           JUNCTION     0.05     0.21     8.13     0  02:14        0.21
  YS02001745           JUNCTION     0.04     0.19     7.70     0  02:13        0.18
  YS02001748           JUNCTION     0.05     0.23     7.31     0  02:20        0.22
  YS02001751           JUNCTION     0.07     0.44     7.32     0  02:20        0.43
  YS02001754           JUNCTION     0.11     0.71     7.32     0  02:20        0.68
  YS02001757           JUNCTION     0.26     1.08     7.34     0  02:18        1.04
  YS02001759           JUNCTION     0.21     0.99     7.35     0  02:20        0.96
  YS02001762           JUNCTION     0.20     0.94     7.34     0  02:20        0.93
  YS02001765           JUNCTION     0.18     0.91     7.36     0  02:21        0.89
  YS02001767           JUNCTION     0.18     0.85     7.34     0  02:21        0.82
  YS02001770           JUNCTION     0.19     0.84     7.34     0  02:20        0.83
  YS02001774           JUNCTION     0.25     0.91     7.34     0  02:20        0.91
  YS02001779           JUNCTION     0.09     0.65     7.33     0  02:20        0.65
  YS02001783           JUNCTION     0.20     0.87     7.01     0  02:18        0.87
  YS02001784           JUNCTION     0.22     0.82     6.89     0  02:18        0.82
  YS02001786           JUNCTION     0.19     0.66     6.69     0  02:18        0.66
  YS02001788           JUNCTION     0.14     0.52     6.50     0  02:18        0.52
  YS02001790           JUNCTION     0.17     0.62     6.26     0  02:19        0.61
  YS02001791           JUNCTION     0.11     0.37     5.84     0  02:19        0.37
  YS02001793           JUNCTION     0.06     0.18     5.02     0  02:19        0.18
  YS02001882           JUNCTION     0.24     0.95     7.66     0  02:18        0.93
  YS02001884           JUNCTION     0.32     1.04     7.66     0  02:18        1.04
  YS02001887           JUNCTION     0.40     1.12     7.66     0  02:18        1.12
  YS02001890           JUNCTION     0.43     1.15     7.66     0  02:18        1.15
  YS02001895           JUNCTION     0.21     0.91     7.65     0  02:17        0.90
  YS02001898           JUNCTION     0.22     0.92     7.65     0  02:17        0.92
  YS02001901           JUNCTION     0.32     1.04     7.65     0  02:17        1.04
  YS02001904           JUNCTION     0.31     1.02     7.65     0  02:18        1.02
  YS02001907           JUNCTION     0.62     1.37     7.66     0  02:17        1.36
  YS02001910           JUNCTION     0.42     1.16     7.66     0  02:18        1.16
  YS02001915           JUNCTION     0.24     0.95     7.67     0  02:18        0.95
  YS02001918           JUNCTION     0.10     0.61     7.68     0  02:17        0.60
  YS02001920           JUNCTION     0.18     0.68     7.69     0  02:18        0.66
  YS02001923           JUNCTION     0.06     0.43     7.69     0  02:18        0.43
  YS02001926           JUNCTION     0.11     0.32     7.77     0  02:15        0.32
  YS02001929           JUNCTION     0.05     0.19     7.88     0  02:15        0.19
  YS02006553           JUNCTION     0.62     1.36     7.64     0  02:17        1.35
  YS02006556           JUNCTION     0.59     1.31     7.62     0  02:17        1.30
  YS02006558           JUNCTION     0.64     1.33     7.60     0  02:18        1.33
  YS02006561           JUNCTION     0.11     0.46     7.12     0  02:18        0.46
  YS02163301           JUNCTION     0.40     1.89     8.41     0  02:13        1.45
  YS02163601           JUNCTION     0.48     1.67     8.07     0  02:13        1.40
  YS02164001           JUNCTION     0.42     1.51     7.97     0  02:13        1.27
  CC-1                 OUTFALL      0.00     0.00     0.00     0  00:00        0.00
  CC-2                 OUTFALL      0.00     0.00     0.00     0  00:00        0.00
  JK-1                 OUTFALL      0.00     0.00     0.00     0  00:00        0.00
  JK-2                 OUTFALL      0.00     0.00     0.00     0  00:00        0.00
  WSC                  OUTFALL      0.22     0.35     1.02     0  02:53        0.35
  CC-storage           STORAGE      0.76     1.40     6.90     0  02:36        1.40
  JK-storage           STORAGE      2.16     4.21     5.01     0  02:30        4.17
  XR-storage           STORAGE      7.85     9.26     7.26     0  08:00        9.26
  
  
  *******************
  Node Inflow Summary
  *******************
  
  -------------------------------------------------------------------------------------------------
                                  Maximum  Maximum                  Lateral       Total        Flow
                                  Lateral    Total  Time of Max      Inflow      Inflow     Balance
                                   Inflow   Inflow   Occurrence      Volume      Volume       Error
  Node                 Type           LPS      LPS  days hr:min    10^6 ltr    10^6 ltr     Percent
  -------------------------------------------------------------------------------------------------
  WS02001211           JUNCTION      7.35   201.14     0  03:00       0.212        5.44       0.611
  WS02001212           JUNCTION      0.00   202.37     0  03:00           0        5.41       0.290
  WS02001213           JUNCTION      0.00   203.54     0  03:52           0        5.39       0.331
  WS02003059           JUNCTION      0.00   208.45     0  02:58           0        5.38       0.591
  WS02003060           JUNCTION     16.53   750.56     0  02:46       0.476        8.76       0.160
  WS02003066           JUNCTION      0.00   536.43     0  02:44           0        2.93       0.043
  WS02003067           JUNCTION      0.00   536.42     0  02:43           0        2.94       0.137
  WS02003069           JUNCTION      0.32   750.71     0  02:46     0.00922        8.74       0.169
  WS02003072           JUNCTION      0.00   750.70     0  02:52           0        8.73       0.231
  WS02003073           JUNCTION      1.82   752.52     0  02:52      0.0524        8.76       0.238
  WS02004138           JUNCTION      0.00   380.00     0  00:00           0        5.25       0.053
  WS02004139           JUNCTION      0.32   191.16     0  00:29     0.00924        5.26       0.509
  WS02004401           JUNCTION      0.00   539.53     0  02:52           0        3.03       0.325
  WS02004402           JUNCTION      0.00   539.08     0  02:32           0        3.02       0.332
  WS02004403           JUNCTION      0.00   538.51     0  02:32           0        3.01       0.326
  WS02004404           JUNCTION      0.16   538.21     0  02:32     0.00467        3.01       0.273
  WS02004405           JUNCTION      0.04   538.50     0  02:32      0.0011           3       0.409
  WS02004406           JUNCTION      0.00   538.67     0  02:33           0        2.99       0.680
  WS02004407           JUNCTION      0.00   537.75     0  02:33           0        2.97       0.030
  WS02004409           JUNCTION      0.00   537.25     0  02:33           0        2.97       0.074
  WS02004410           JUNCTION      0.00   536.55     0  02:42           0        2.96       0.131
  WS02004411           JUNCTION      0.00   536.49     0  02:43           0        2.96       0.172
  WS02004412           JUNCTION      0.00   536.44     0  02:43           0        2.96       0.237
  WS02004413           JUNCTION      0.00   536.50     0  02:43           0        2.95       0.425
  WS02006109           JUNCTION      1.23   551.74     0  02:50      0.0354        3.08       0.263
  WS02006110           JUNCTION      0.00   552.75     0  02:50           0        3.07       0.212
  WS02006111           JUNCTION      0.00   562.62     0  02:57           0        3.06       0.011
  WS02006112           JUNCTION      0.00   543.66     0  02:31           0        3.06       0.562
  WS02006113           JUNCTION      0.00   569.52     0  02:51           0        3.06       0.063
  WS02006115           JUNCTION      0.00   548.65     0  03:01           0        3.04       0.201
  WS02006116           JUNCTION      0.00   541.08     0  02:32           0        3.04       0.108
  WS02006228           JUNCTION      0.00   550.12     0  02:50           0        3.04       0.109
  WS02006229           JUNCTION      0.00   549.45     0  02:50           0        3.05       0.123
  WS02006230           JUNCTION     10.28   588.34     0  03:00       0.296        3.05       0.145
  WS02006231           JUNCTION      0.00   579.39     0  02:50           0        2.75      -0.094
  WS02006232           JUNCTION      0.00   578.57     0  02:50           0        2.76       0.247
  WS02006234           JUNCTION      0.00   574.03     0  02:50           0        2.75      -0.212
  WS02006235           JUNCTION      0.00   567.46     0  02:50           0        2.79       0.171
  WS02006238           JUNCTION      0.00   422.91     0  03:01           0        2.13      -0.116
  WS02006239           JUNCTION      0.00   422.96     0  03:01           0        2.11      -0.044
  WS02006240           JUNCTION      0.00   420.50     0  03:01           0        2.09      -0.068
  WS02006242           JUNCTION      0.00   420.72     0  02:52           0        2.08      -0.172
  WS02006243           JUNCTION      0.00   421.57     0  03:26           0        2.08      -0.076
  WS02006245           JUNCTION      0.00   422.21     0  03:26           0        2.09       0.473
  WS02006247           JUNCTION      0.00   421.33     0  03:26           0        2.09      -0.007
  WS02006248           JUNCTION      0.00   422.14     0  03:26           0        2.09      -0.088
  WS02006249           JUNCTION      0.00   458.97     0  00:00           0        2.27       0.518
  WS02006251           JUNCTION      0.08   407.15     0  02:17     0.00222        2.27       0.069
  WS02006252           JUNCTION      0.00   400.00     0  00:00           0        2.26      -0.418
  WS02006256           JUNCTION      0.00   300.00     0  00:00           0       0.982      -0.520
  WSF200               JUNCTION      0.00   536.45     0  02:44           0        2.93       0.014
  YS02001580           JUNCTION      0.00   123.08     0  02:13           0     0.00445       1.100
  YS02001583           JUNCTION      0.00   197.25     0  02:13           0      0.0153      -5.808
  YS02001586           JUNCTION    253.98   256.83     0  02:14       0.594       0.606       0.240
  YS02001590           JUNCTION      0.00   256.91     0  02:14           0       0.592      -0.053
  YS02001593           JUNCTION      0.00   256.95     0  02:14           0       0.592      -0.006
  YS02001596           JUNCTION      0.00   257.02     0  02:14           0       0.592      -0.031
  YS02001600           JUNCTION      0.00   257.03     0  02:14           0       0.592      -0.004
  YS02001601           JUNCTION    465.23   721.66     0  02:14       0.844        1.44       0.032
  YS02001602           JUNCTION      0.00   539.00     0  02:13           0        1.35       0.016
  YS02001605           JUNCTION      0.00   539.27     0  02:13           0        1.35       0.016
  YS02001607           JUNCTION      0.00   539.51     0  02:13           0        1.34       0.131
  YS02001610           JUNCTION      0.00   543.50     0  02:13           0        1.34       0.154
  YS02001613           JUNCTION      0.00   545.96     0  02:13           0        1.34       0.107
  YS02001616           JUNCTION      0.00   540.25     0  02:13           0        1.34       0.015
  YS02001619           JUNCTION    435.51   949.71     0  02:13       0.901        2.24      -0.015
  YS02001622           JUNCTION      0.00   952.66     0  02:13           0        2.24      -0.012
  YS02001625           JUNCTION      0.00   936.76     0  02:13           0        2.24       0.388
  YS02001629           JUNCTION      0.00   936.74     0  02:13           0        2.23       0.026
  YS02001633           JUNCTION    354.27  1254.04     0  02:14       0.625        2.86       0.114
  YS02001641           JUNCTION      0.00  1257.97     0  02:14           0        2.86       0.092
  YS02001644           JUNCTION    305.66  1561.64     0  02:14       0.509        3.36       0.094
  YS02001647           JUNCTION      0.00  1563.17     0  02:14           0        3.35       0.015
  YS02001649           JUNCTION      0.00  1910.60     0  02:15           0        3.82       0.007
  YS02001652           JUNCTION      0.00   373.68     0  02:15           0       0.473      -0.235
  YS02001655           JUNCTION      0.15   310.03     0  02:14     0.00443       0.473       0.183
  YS02001658           JUNCTION      0.00   304.47     0  02:14           0       0.469      -0.026
  YS02001661           JUNCTION      0.00   304.74     0  02:14           0       0.469       0.073
  YS02001664           JUNCTION    304.98   304.98     0  02:14       0.469       0.469      -0.012
  YS02001745           JUNCTION    194.06   194.06     0  02:14       0.281       0.281       0.030
  YS02001748           JUNCTION      0.04   194.76     0  02:13      0.0013       0.282      -0.066
  YS02001751           JUNCTION      0.01   195.45     0  02:13    0.000317       0.282       0.398
  YS02001754           JUNCTION      0.26   221.00     0  02:16     0.00749       0.294      -0.385
  YS02001757           JUNCTION      0.00  2497.63     0  02:17           0        5.15       0.034
  YS02001759           JUNCTION    279.78   548.01     0  02:17       0.406        1.03      -0.022
  YS02001762           JUNCTION      0.00   335.75     0  02:17           0       0.625       0.019
  YS02001765           JUNCTION      0.00   336.42     0  02:17           0       0.625       0.012
  YS02001767           JUNCTION      0.54   357.83     0  02:17      0.0154       0.625       0.028
  YS02001770           JUNCTION    386.72   386.72     0  02:14       0.611       0.645      -0.012
  YS02001774           JUNCTION      0.00   118.74     0  02:15           0      0.0516       2.298
  YS02001779           JUNCTION      0.01    63.45     0  02:15    0.000144      0.0162       0.083
  YS02001783           JUNCTION      0.00   927.22     0  02:18           0        1.87       0.016
  YS02001784           JUNCTION      1.06   928.36     0  02:18      0.0305         1.9       0.026
  YS02001786           JUNCTION      0.06   928.22     0  02:18     0.00162         1.9       0.035
  YS02001788           JUNCTION      0.07   928.90     0  02:18     0.00204         1.9       0.015
  YS02001790           JUNCTION      0.15   929.76     0  02:18     0.00446        1.91       0.036
  YS02001791           JUNCTION      0.00   996.02     0  02:18           0        1.91      -0.006
  YS02001793           JUNCTION      0.00   942.11     0  02:19           0        1.91       0.010
  YS02001882           JUNCTION      0.00    28.10     0  02:14           0       0.012       5.470
  YS02001884           JUNCTION      0.00    56.76     0  02:14           0      0.0463       5.713
  YS02001887           JUNCTION    309.11   309.11     0  02:13       0.436       0.467       0.947
  YS02001890           JUNCTION      0.00   268.30     0  02:13           0       0.428       1.193
  YS02001895           JUNCTION      0.00   258.73     0  02:15           0       0.423       0.308
  YS02001898           JUNCTION      0.00   239.31     0  02:15           0       0.422       0.133
  YS02001901           JUNCTION      0.00   231.44     0  02:15           0       0.424       0.742
  YS02001904           JUNCTION      0.00   223.38     0  02:22           0       0.428       0.684
  YS02001907           JUNCTION      0.00   653.56     0  02:20           0        1.32       1.347
  YS02001910           JUNCTION      0.00   446.89     0  02:19           0       0.904       0.789
  YS02001915           JUNCTION    314.49   449.13     0  02:18       0.526       0.905       0.179
  YS02001918           JUNCTION      0.00   186.11     0  02:18           0        0.38       0.081
  YS02001920           JUNCTION      2.87   188.00     0  02:17      0.0827       0.381       0.279
  YS02001923           JUNCTION      0.04   158.38     0  02:15     0.00109       0.298       0.008
  YS02001926           JUNCTION      0.05   158.74     0  02:15      0.0015       0.298       0.082
  YS02001929           JUNCTION    158.81   158.81     0  02:15       0.296       0.296      -0.008
  YS02006553           JUNCTION      0.00   653.63     0  02:19           0        1.31       0.895
  YS02006556           JUNCTION      0.00   653.73     0  02:20           0        1.32       0.610
  YS02006558           JUNCTION    383.49   927.29     0  02:18       0.599         1.9       0.174
  YS02006561           JUNCTION      0.00   927.33     0  02:18           0        1.87       0.001
  YS02163301           JUNCTION      0.00   899.26     0  02:14           0        2.23       0.058
  YS02163601           JUNCTION      0.11  1254.87     0  02:14     0.00317        2.85       0.166
  YS02164001           JUNCTION      0.00  1255.49     0  02:14           0        2.85       0.074
  CC-1                 OUTFALL       0.00   683.00     0  00:00           0        3.48       0.000
  CC-2                 OUTFALL       0.00   683.00     0  00:00           0       0.205       0.000
  JK-1                 OUTFALL       0.00  1000.00     0  00:00           0       0.832       0.000
  JK-2                 OUTFALL       0.00  1000.00     0  00:00           0      0.0484       0.000
  WSC                  OUTFALL       0.00   752.52     0  02:53           0        8.74       0.000
  CC-storage           STORAGE       0.00  2287.67     0  02:16           0        7.37      -0.343
  JK-storage           STORAGE       0.00   941.56     0  02:19           0        2.06       0.323
  XR-storage           STORAGE     200.00   200.00     0  00:00        5.76        6.36       0.001
  
  
  **********************
  Node Surcharge Summary
  **********************
  
  Surcharging occurs when water rises above the top of the highest conduit.
  ---------------------------------------------------------------------
                                               Max. Height   Min. Depth
                                   Hours       Above Crown    Below Rim
  Node                 Type      Surcharged         Meters       Meters
  ---------------------------------------------------------------------
  WS02006109           JUNCTION        1.36          0.368        1.452
  WS02006110           JUNCTION        0.58          0.168        1.682
  WS02006112           JUNCTION        0.55          0.098        1.582
  WS02006228           JUNCTION        1.36          0.384        1.816
  WS02006229           JUNCTION        1.36          0.369        2.081
  WS02006230           JUNCTION        0.61          0.204        1.366
  WS02006231           JUNCTION        0.68          0.293        1.237
  WS02006232           JUNCTION        1.38          0.468        1.012
  WS02006234           JUNCTION        1.07          0.717        0.523
  WS02006235           JUNCTION        1.33          0.558        0.732
  WS02006238           JUNCTION        1.36          0.586        0.844
  WS02006239           JUNCTION        1.34          0.566        0.724
  WS02006240           JUNCTION        1.35          0.556        0.834
  WS02006242           JUNCTION        1.37          0.594        0.226
  WS02006243           JUNCTION        1.35          0.504        0.266
  WS02006245           JUNCTION        1.34          0.464        0.386
  WS02006247           JUNCTION        1.35          0.601        0.159
  WS02006248           JUNCTION        1.34          0.380        0.000
  WS02006249           JUNCTION        1.34          0.390        0.000
  WS02006251           JUNCTION        0.73          0.349        0.831
  WS02006252           JUNCTION        1.50          1.100        0.000
  WS02006256           JUNCTION        3.49          2.050        0.000
  YS02001580           JUNCTION        0.05          0.450        0.000
  YS02001583           JUNCTION        0.07          0.500        0.000
  YS02001586           JUNCTION        0.22          0.510        0.000
  YS02001590           JUNCTION        0.27          0.750        0.000
  YS02001593           JUNCTION        0.28          0.780        0.060
  YS02001596           JUNCTION        0.36          0.954        0.116
  YS02001600           JUNCTION        0.45          1.190        0.000
  YS02001601           JUNCTION        0.73          1.440        0.000
  YS02001602           JUNCTION        0.63          1.270        0.000
  YS02001605           JUNCTION        0.59          1.180        0.000
  YS02001607           JUNCTION        0.23          0.680        0.000
  YS02001610           JUNCTION        0.25          0.680        0.000
  YS02001613           JUNCTION        0.23          0.668        0.032
  YS02001616           JUNCTION        0.20          0.610        0.000
  YS02001619           JUNCTION        0.19          0.610        0.000
  YS02001622           JUNCTION        0.18          0.620        0.000
  YS02001625           JUNCTION        0.32          0.780        0.000
  YS02001629           JUNCTION        0.12          0.470        0.000
  YS02001633           JUNCTION        0.33          0.792        0.268
  YS02001641           JUNCTION        0.27          0.445        0.655
  YS02001644           JUNCTION        0.23          0.317        0.603
  YS02001649           JUNCTION        0.07          0.042        1.008
  YS02001757           JUNCTION        0.10          0.083        1.127
  YS02001783           JUNCTION        0.10          0.068        1.532
  YS02001784           JUNCTION        0.07          0.021        1.469
  YS02001887           JUNCTION        0.09          0.074        0.876
  YS02001890           JUNCTION        0.11          0.101        0.659
  YS02001901           JUNCTION        0.06          0.043        0.827
  YS02001904           JUNCTION        0.04          0.020        0.830
  YS02001907           JUNCTION        0.29          0.357        0.593
  YS02001910           JUNCTION        0.14          0.157        0.943
  YS02006553           JUNCTION        0.30          0.359        0.831
  YS02006556           JUNCTION        0.22          0.267        1.083
  YS02006558           JUNCTION        0.21          0.234        1.166
  YS02163301           JUNCTION        0.32          0.888        0.142
  YS02163601           JUNCTION        0.35          0.670        0.410
  YS02164001           JUNCTION        0.27          0.512        0.588
  
  
  *********************
  Node Flooding Summary
  *********************
  
  Flooding refers to all water that overflows a node, whether it ponds or not.
  --------------------------------------------------------------------------
                                                             Total   Maximum
                                 Maximum   Time of Max       Flood    Ponded
                        Hours       Rate    Occurrence      Volume     Depth
  Node                 Flooded       LPS   days hr:min    10^6 ltr    Meters
  --------------------------------------------------------------------------
  WS02006248              0.01      2.24      0  03:12       0.000     0.000
  WS02006249              0.70    100.26      0  02:18       0.168     0.000
  WS02006252              0.01    245.63      0  00:00       0.000     0.000
  WS02006256              0.91    293.19      0  00:00       0.316     0.000
  YS02001580              0.01    108.62      0  02:13       0.000     0.000
  YS02001583              0.01    145.64      0  02:13       0.000     0.000
  YS02001586              0.01     81.43      0  02:14       0.001     0.000
  YS02001590              0.01    107.73      0  02:11       0.000     0.000
  YS02001600              0.01      0.98      0  02:13       0.000     0.000
  YS02001601              0.16    278.97      0  02:14       0.090     0.000
  YS02001602              0.01     22.19      0  02:13       0.000     0.000
  YS02001605              0.01      3.51      0  02:13       0.000     0.000
  YS02001607              0.01     14.34      0  02:13       0.000     0.000
  YS02001610              0.01     34.14      0  02:13       0.000     0.000
  YS02001616              0.01     61.56      0  02:13       0.000     0.000
  YS02001619              0.01     63.14      0  02:13       0.000     0.000
  YS02001622              0.01    178.61      0  02:13       0.000     0.000
  YS02001625              0.01     53.26      0  02:13       0.000     0.000
  YS02001629              0.01    215.14      0  02:13       0.001     0.000
  
  
  **********************
  Storage Volume Summary
  **********************
  
  ------------------------------------------------------------------------------------------------
                         Average    Avg   Evap  Exfil     Maximum    Max    Time of Max    Maximum
                          Volume   Pcnt   Pcnt   Pcnt      Volume   Pcnt     Occurrence    Outflow
  Storage Unit           1000 m³   Full   Loss   Loss     1000 m³   Full    days hr:min        LPS
  ------------------------------------------------------------------------------------------------
  CC-storage               2.120   33.1    0.0    0.0       3.897   60.8       0  02:36    1783.53
  JK-storage               0.108   37.2    0.0    0.0       0.211   72.5       0  02:30    2300.00
  XR-storage               0.941   65.4    0.0    0.0       1.111   77.2       0  08:00     380.00
  
  
  ***********************
  Outfall Loading Summary
  ***********************
  
  -----------------------------------------------------------
                         Flow       Avg       Max       Total
                         Freq      Flow      Flow      Volume
  Outfall Node           Pcnt       LPS       LPS    10^6 ltr
  -----------------------------------------------------------
  CC-1                  30.19    683.00    683.00       3.475
  CC-2                   1.25    683.00    683.00       0.205
  JK-1                   9.19   1000.00   1000.00       0.832
  JK-2                   0.27   1000.00   1000.00       0.048
  WSC                   99.92    356.73    752.52       8.741
  -----------------------------------------------------------
  System                28.16   3722.73   3366.23      13.301
  
  
  ********************
  Link Flow Summary
  ********************
  
  -----------------------------------------------------------------------------
                                 Maximum  Time of Max   Maximum    Max/    Max/
                                  |Flow|   Occurrence   |Veloc|    Full    Full
  Link                 Type          LPS  days hr:min     m/sec    Flow   Depth
  -----------------------------------------------------------------------------
  1                    CONDUIT    752.52     0  02:53      3.08    0.26    0.35
  WS02001211WS02001212 CONDUIT    202.37     0  03:00      0.54    0.15    0.51
  WS02001212WS02001213 CONDUIT    203.54     0  03:52      1.04    0.31    0.36
  WS02001213WS02003059 CONDUIT    208.45     0  02:58      0.47    0.34    0.67
  WS02003059WS02003060 CONDUIT    214.70     0  03:52      0.67    0.14    0.58
  WS02003060WS02003069 CONDUIT    750.39     0  02:46      1.77    0.29    0.40
  WS02003066WSF200     CONDUIT    536.45     0  02:44      2.74    0.09    0.23
  WS02003067WS02003066 CONDUIT    536.43     0  02:44      1.21    0.17    0.42
  WS02003069WS02003072 CONDUIT    750.70     0  02:52      1.51    0.36    0.45
  WS02003072WS02003073 CONDUIT    750.70     0  02:52      1.60    1.62    0.43
  WS02004138WS02004139 CONDUIT    190.84     0  00:29      2.17    0.04    0.33
  WS02004139WS02001211 CONDUIT    193.79     0  03:00      0.54    0.24    0.47
  WS02004401WS02004402 CONDUIT    539.08     0  02:32      0.97    0.65    0.86
  WS02004402WS02004403 CONDUIT    538.51     0  02:32      0.97    0.77    0.88
  WS02004403WS02004404 CONDUIT    538.05     0  02:32      0.92    0.39    0.93
  WS02004404WS02004405 CONDUIT    538.46     0  02:32      1.08    5.28    0.96
  WS02004405WS02004406 CONDUIT    538.67     0  02:33      0.99    1.06    0.96
  WS02004406WS02004407 CONDUIT    537.75     0  02:33      1.04    0.24    0.63
  WS02004407WS02004409 CONDUIT    537.25     0  02:33      1.56    0.19    0.48
  WS02004409WS02004410 CONDUIT    536.55     0  02:42      1.05    0.69    0.67
  WS02004410WS02004411 CONDUIT    536.49     0  02:43      0.98    0.73    0.69
  WS02004411WS02004412 CONDUIT    536.44     0  02:43      0.92    0.76    0.69
  WS02004412WS02004413 CONDUIT    536.50     0  02:43      0.82    0.36    0.78
  WS02004413WS02003067 CONDUIT    536.42     0  02:43      1.11    0.23    0.59
  WS02006109WS02006110 CONDUIT    552.75     0  02:50      1.10    1.06    1.00
  WS02006110WS02006113 CONDUIT    569.52     0  02:51      1.37    0.52    0.79
  WS02006111WS02006112 CONDUIT    543.66     0  02:31      1.82    0.26    0.67
  WS02006112WS02006115 CONDUIT    548.65     0  03:01      0.86    0.32    0.87
  WS02006113WS02006111 CONDUIT    562.62     0  02:57      2.47    0.67    0.46
  WS02006115WS02006116 CONDUIT    541.08     0  02:32      1.04    0.69    0.76
  WS02006116WS02004401 CONDUIT    539.53     0  02:52      0.98    0.74    0.84
  WS02006228WS02006109 CONDUIT    550.51     0  02:50      1.10    2.41    1.00
  WS02006229WS02006228 CONDUIT    550.12     0  02:50      1.15    1.82    1.00
  WS02006230WS02006229 CONDUIT    549.45     0  02:50      1.43   12.23    1.00
  WS02006231WS02006230 CONDUIT    578.06     0  03:00      1.56    8.77    1.00
  WS02006232WS02006231 CONDUIT    579.39     0  02:50      1.51    1.21    1.00
  WS02006234WS02006232 CONDUIT    578.57     0  02:50      1.50    1.17    1.00
  WS02006235WS02006234 CONDUIT    574.03     0  02:50      1.49    6.06    1.00
  WS02006238WS02006235 CONDUIT    423.74     0  02:52      1.57    0.95    1.00
  WS02006239WS02006238 CONDUIT    422.91     0  03:01      1.11    1.35    1.00
  WS02006240WS02006239 CONDUIT    422.96     0  03:01      1.24    1.33    1.00
  WS02006242WS02006240 CONDUIT    420.50     0  03:01      1.12    1.67    1.00
  WS02006243WS02006242 CONDUIT    420.72     0  02:52      1.39    0.90    1.00
  WS02006245WS02006243 CONDUIT    421.57     0  03:26      1.45    1.25    1.00
  WS02006247WS02006245 CONDUIT    422.21     0  03:26      1.44    3.35    1.00
  WS02006248WS02006247 CONDUIT    421.33     0  03:26      1.45    0.92    1.00
  WS02006249WS02006248 CONDUIT    422.14     0  03:26      1.37    2.31    1.00
  WS02006251WS02006249 CONDUIT    458.97     0  00:00      1.99    1.32    1.00
  WS02006252WS02006251 CONDUIT    407.08     0  02:17     27.17    1.49    1.00
  WS02006256WS02006235 CONDUIT    289.23     0  02:08      4.23    3.06    1.00
  WSF200WS02003060     CONDUIT    536.52     0  02:44      1.76    0.12    0.32
  YS02001580YS02001583 CONDUIT    123.08     0  02:13      0.76    0.48    1.00
  YS02001583YS02001586 CONDUIT    166.69     0  02:13      0.75    0.25    1.00
  YS02001586YS02001590 CONDUIT    256.91     0  02:14      1.28    0.45    1.00
  YS02001590YS02001593 CONDUIT    256.95     0  02:14      1.03    1.61    1.00
  YS02001593YS02001596 CONDUIT    257.02     0  02:14      1.69    0.41    1.00
  YS02001596YS02001600 CONDUIT    257.03     0  02:14      1.19    0.50    1.00
  YS02001600YS02001601 CONDUIT    257.08     0  02:14      0.91    0.44    1.00
  YS02001601YS02001602 CONDUIT    539.00     0  02:13      1.91    1.95    1.00
  YS02001602YS02001605 CONDUIT    539.27     0  02:13      1.91   11.41    1.00
  YS02001605YS02001607 CONDUIT    539.51     0  02:13      1.91    2.96    1.00
  YS02001607YS02001610 CONDUIT    543.50     0  02:13      0.69    0.52    1.00
  YS02001610YS02001613 CONDUIT    545.96     0  02:13      0.70    0.63    1.00
  YS02001613YS02001616 CONDUIT    540.25     0  02:13      0.69    0.46    1.00
  YS02001616YS02001619 CONDUIT    536.40     0  02:13      0.68    0.93    1.00
  YS02001619YS02001622 CONDUIT    952.66     0  02:13      1.23    1.40    1.00
  YS02001622YS02001625 CONDUIT    936.76     0  02:13      1.19    0.50    1.00
  YS02001625YS02001629 CONDUIT    936.74     0  02:13      1.20    0.45    1.00
  YS02001629YS02163301 CONDUIT    899.26     0  02:14      1.14    1.11    1.00
  YS02001633YS02163601 CONDUIT   1254.76     0  02:14      1.60    1.32    1.00
  YS02001641YS02001644 CONDUIT   1257.85     0  02:14      1.60    4.07    1.00
  YS02001644YS02001647 CONDUIT   1563.17     0  02:14      2.14    0.92    0.94
  YS02001647YS02001649 CONDUIT   1571.23     0  02:14      2.30    0.83    0.94
  YS02001649YS02001757 CONDUIT   1869.18     0  02:15      2.48    1.13    1.00
  YS02001652YS02001649 CONDUIT    395.50     0  02:15      0.71    0.20    0.92
  YS02001655YS02001652 CONDUIT    373.68     0  02:15      1.38    0.18    0.68
  YS02001658YS02001655 CONDUIT    309.87     0  02:14      1.96    0.13    0.41
  YS02001661YS02001658 CONDUIT    304.47     0  02:14      2.12    0.12    0.24
  YS02001664YS02001661 CONDUIT    304.74     0  02:14      1.92    0.10    0.26
  YS02001745YS02001748 CONDUIT    194.72     0  02:13      1.95    0.07    0.19
  YS02001748YS02001751 CONDUIT    195.44     0  02:13      1.64    0.10    0.33
  YS02001751YS02001754 CONDUIT    212.54     0  02:17      1.52    0.10    0.54
  YS02001754YS02001757 CONDUIT    262.89     0  02:17      0.51    0.11    0.86
  YS02001757CaochengTiaoxuchi CONDUIT   2287.67     0  02:16      2.96    0.99    1.00
  YS02001759YS02001757 CONDUIT    517.48     0  02:17      0.91    0.37    0.99
  YS02001762YS02001759 CONDUIT    322.52     0  02:17      0.58    0.37    0.96
  YS02001765YS02001762 CONDUIT    335.75     0  02:17      0.71    0.31    0.91
  YS02001767YS02001765 CONDUIT    336.42     0  02:17      0.81    0.42    0.86
  YS02001770YS02001767 CONDUIT    357.29     0  02:17      0.83    1.42    0.84
  YS02001774YS02001770 CONDUIT    118.74     0  02:15      0.19    0.08    0.86
  YS02001779YS02001774 CONDUIT     63.44     0  02:15      0.12    0.03    0.78
  YS02001783YS02001784 CONDUIT    927.30     0  02:18      1.84    1.28    1.00
  YS02001784YS02001785 CONDUIT    928.16     0  02:18      1.93    2.16    0.91
  YS02001786YS02001788 CONDUIT    928.83     0  02:18      2.33    1.79    0.74
  YS02001788YS02001790 CONDUIT    929.61     0  02:18      2.45    0.69    0.71
  YS02001790YS02001791 CONDUIT    996.02     0  02:18      3.10    1.08    0.61
  YS02001791YS02001793 CONDUIT    942.11     0  02:19      6.18    0.40    0.35
  YS02001793JiankangQianchi CONDUIT    941.56     0  02:19      1.94    0.07    0.59
  YS02001882YS02001884 CONDUIT     28.10     0  02:14      0.07    0.03    0.96
  YS02001884YS02001887 CONDUIT     56.76     0  02:14      0.08    0.08    1.00
  YS02001887YS02001890 CONDUIT    268.30     0  02:13      0.36    0.46    1.00
  YS02001890YS02001895 CONDUIT    258.73     0  02:15      0.37    0.12    0.95
  YS02001895YS02001898 CONDUIT    239.31     0  02:15      0.38    0.42    0.90
  YS02001898YS02001901 CONDUIT    231.44     0  02:15      0.36    0.15    0.96
  YS02001901YS02001904 CONDUIT    223.38     0  02:22      0.35    0.35    1.00
  YS02001904YS02001907 CONDUIT    233.26     0  02:22      0.32    0.08    1.00
  YS02001907YS02006553 CONDUIT    653.63     0  02:19      0.73    0.77    1.00
  YS02001910YS02001907 CONDUIT    447.56     0  02:19      0.57    0.25    1.00
  YS02001915YS02001910 CONDUIT    446.89     0  02:19      0.58    0.22    0.98
  YS02001918YS02001915 CONDUIT    202.57     0  02:21      0.46    0.11    0.78
  YS02001920YS02001918 CONDUIT    186.11     0  02:18      0.65    0.18    0.64
  YS02001923YS02001920 CONDUIT    185.13     0  02:17      0.74    0.08    0.55
  YS02001926YS02001923 CONDUIT    158.34     0  02:15      0.92    0.23    0.27
  YS02001929YS02001926 CONDUIT    158.69     0  02:15      1.01    0.08    0.26
  YS02006553YS02006556 CONDUIT    653.73     0  02:20      0.83    0.56    1.00
  YS02006556YS02006558 CONDUIT    654.53     0  02:19      0.83    0.52    1.00
  YS02006558YS02006561 CONDUIT    927.33     0  02:18      3.52    2.05    0.88
  YS02006561YS02001783 CONDUIT    927.22     0  02:18      2.19    0.48    0.79
  YS02163301YS02001633 CONDUIT    899.87     0  02:14      1.15    0.85    1.00
  YS02163601YS02164001 CONDUIT   1255.49     0  02:14      1.60    1.11    1.00
  YS02164001YS02001641 CONDUIT   1257.97     0  02:14      1.60    1.72    1.00
  CC-R1                PUMP       683.00     0  00:00              1.00
  CC-R2                PUMP       683.00     0  00:00              1.00
  CC-S1                PUMP       200.00     0  00:00              1.00
  CC-S2                PUMP       200.00     0  00:00              1.00
  JK-R1                PUMP      1000.00     0  00:00              1.00
  JK-R2                PUMP      1000.00     0  00:00              1.00
  JK-S                 PUMP       300.00     0  00:00              1.00
  XR-1                 PUMP        95.00     0  00:00              1.00
  XR-2                 PUMP        95.00     0  00:00              1.00
  XR-3                 PUMP        95.00     0  00:00              1.00
  XR-4                 PUMP        95.00     0  00:00              1.00
  
  
  ***************************
  Flow Classification Summary
  ***************************
  
  -------------------------------------------------------------------------------------
                      Adjusted    ---------- Fraction of Time in Flow Class ---------- 
                       /Actual         Up    Down  Sub   Sup   Up    Down  Norm  Inlet 
  Conduit               Length    Dry  Dry   Dry   Crit  Crit  Crit  Crit  Ltd   Ctrl  
  -------------------------------------------------------------------------------------
  1                       1.00   0.00  0.00  0.00  0.00  1.00  0.00  0.00  0.15  0.00
  WS02001211WS02001212    1.00   0.00  0.02  0.00  0.98  0.00  0.00  0.00  0.00  0.00
  WS02001212WS02001213    1.00   0.02  0.00  0.00  0.19  0.00  0.79  0.00  0.00  0.00
  WS02001213WS02003059    1.00   0.00  0.01  0.00  0.99  0.00  0.00  0.00  0.00  0.00
  WS02003059WS02003060    1.00   0.00  0.00  0.00  1.00  0.00  0.00  0.00  0.03  0.00
  WS02003060WS02003069    1.00   0.00  0.00  0.00  0.98  0.02  0.00  0.00  0.75  0.00
  WS02003066WSF200        1.00   0.13  0.00  0.00  0.00  0.87  0.00  0.00  0.78  0.00
  WS02003067WS02003066    1.00   0.10  0.02  0.00  0.88  0.00  0.00  0.00  0.00  0.00
  WS02003069WS02003072    1.00   0.00  0.00  0.00  1.00  0.00  0.00  0.00  0.79  0.00
  WS02003072WS02003073    1.00   0.00  0.00  0.00  0.00  0.00  0.00  1.00  0.00  0.00
  WS02004138WS02004139    1.00   0.00  0.00  0.00  0.97  0.01  0.00  0.02  0.98  0.00
  WS02004139WS02001211    1.00   0.00  0.00  0.00  0.99  0.00  0.00  0.00  0.00  0.00
  WS02004401WS02004402    1.00   0.02  0.00  0.00  0.98  0.00  0.00  0.00  0.00  0.00
  WS02004402WS02004403    1.00   0.02  0.00  0.00  0.97  0.00  0.00  0.00  0.00  0.00
  WS02004403WS02004404    1.00   0.00  0.03  0.00  0.97  0.00  0.00  0.00  0.00  0.00
  WS02004404WS02004405    1.00   0.00  0.00  0.00  1.00  0.00  0.00  0.00  0.00  0.00
  WS02004405WS02004406    1.00   0.00  0.00  0.00  1.00  0.00  0.00  0.00  0.00  0.00
  WS02004406WS02004407    1.00   0.00  0.05  0.00  0.95  0.00  0.00  0.00  0.00  0.00
  WS02004407WS02004409    1.00   0.05  0.00  0.00  0.94  0.01  0.00  0.00  0.94  0.00
  WS02004409WS02004410    1.00   0.05  0.00  0.00  0.95  0.00  0.00  0.00  0.03  0.00
  WS02004410WS02004411    1.00   0.05  0.00  0.00  0.95  0.00  0.00  0.00  0.01  0.00
  WS02004411WS02004412    1.00   0.05  0.00  0.00  0.95  0.00  0.00  0.00  0.00  0.00
  WS02004412WS02004413    1.00   0.05  0.00  0.00  0.94  0.00  0.00  0.00  0.01  0.00
  WS02004413WS02003067    1.00   0.06  0.04  0.00  0.00  0.00  0.90  0.00  0.00  0.00
  WS02006109WS02006110    1.00   0.00  0.01  0.00  0.98  0.00  0.01  0.00  0.00  0.00
  WS02006110WS02006113    1.00   0.01  0.01  0.00  0.98  0.00  0.00  0.00  0.00  0.00
  WS02006111WS02006112    1.00   0.02  0.00  0.00  0.98  0.00  0.00  0.00  0.98  0.00
  WS02006112WS02006115    1.00   0.02  0.00  0.00  0.97  0.00  0.00  0.00  0.00  0.00
  WS02006113WS02006111    1.00   0.02  0.00  0.00  0.00  0.98  0.00  0.00  0.08  0.00
  WS02006115WS02006116    1.00   0.02  0.00  0.00  0.97  0.00  0.00  0.01  0.00  0.00
  WS02006116WS02004401    1.00   0.02  0.00  0.00  0.98  0.00  0.00  0.00  0.00  0.00
  WS02006228WS02006109    1.00   0.00  0.00  0.00  1.00  0.00  0.00  0.00  0.00  0.00
  WS02006229WS02006228    1.00   0.00  0.00  0.00  0.99  0.00  0.00  0.01  0.00  0.00
  WS02006230WS02006229    1.00   0.00  0.00  0.00  0.99  0.00  0.00  0.01  0.00  0.00
  WS02006231WS02006230    1.00   0.00  0.00  0.00  0.18  0.00  0.82  0.00  0.00  0.00
  WS02006232WS02006231    1.00   0.00  0.00  0.00  0.99  0.00  0.01  0.00  0.00  0.00
  WS02006234WS02006232    1.00   0.00  0.00  0.00  1.00  0.00  0.00  0.00  0.47  0.00
  WS02006235WS02006234    1.00   0.00  0.00  0.00  0.49  0.00  0.51  0.00  0.00  0.00
  WS02006238WS02006235    1.00   0.00  0.00  0.00  1.00  0.00  0.00  0.00  0.00  0.00
  WS02006239WS02006238    1.00   0.00  0.00  0.00  1.00  0.00  0.00  0.00  0.57  0.00
  WS02006240WS02006239    1.00   0.00  0.00  0.00  0.32  0.00  0.00  0.67  0.01  0.00
  WS02006242WS02006240    1.00   0.00  0.00  0.00  1.00  0.00  0.00  0.00  0.00  0.00
  WS02006243WS02006242    1.00   0.00  0.00  0.00  0.99  0.00  0.00  0.01  0.77  0.00
  WS02006245WS02006243    1.00   0.00  0.00  0.00  0.42  0.00  0.00  0.58  0.00  0.00
  WS02006247WS02006245    1.00   0.00  0.00  0.00  0.99  0.00  0.00  0.01  0.00  0.00
  WS02006248WS02006247    1.00   0.00  0.00  0.00  0.99  0.00  0.00  0.01  0.22  0.00
  WS02006249WS02006248    1.00   0.00  0.00  0.00  0.28  0.00  0.72  0.00  0.00  0.00
  WS02006251WS02006249    1.00   0.00  0.00  0.00  0.99  0.01  0.00  0.00  0.75  0.00
  WS02006252WS02006251    1.00   0.00  0.76  0.00  0.09  0.00  0.15  0.00  0.00  0.00
  WS02006256WS02006235    1.00   0.00  0.00  0.00  1.00  0.00  0.00  0.00  0.00  0.00
  WSF200WS02003060        1.00   0.00  0.13  0.00  0.70  0.17  0.00  0.00  0.69  0.00
  YS02001580YS02001583    1.00   0.28  0.60  0.00  0.13  0.00  0.00  0.00  0.69  0.00
  YS02001583YS02001586    1.00   0.51  0.31  0.00  0.18  0.00  0.00  0.00  0.69  0.00
  YS02001586YS02001590    1.00   0.13  0.00  0.00  0.33  0.05  0.00  0.49  0.34  0.00
  YS02001590YS02001593    1.00   0.13  0.01  0.00  0.05  0.00  0.82  0.00  0.00  0.00
  YS02001593YS02001596    1.00   0.14  0.00  0.00  0.06  0.01  0.00  0.80  0.01  0.00
  YS02001596YS02001600    1.00   0.14  0.00  0.00  0.11  0.02  0.00  0.73  0.05  0.00
  YS02001600YS02001601    1.00   0.13  0.01  0.00  0.86  0.00  0.00  0.00  0.68  0.00
  YS02001601YS02001602    1.00   0.13  0.02  0.00  0.86  0.00  0.00  0.00  0.00  0.00
  YS02001602YS02001605    1.00   0.14  0.00  0.00  0.86  0.00  0.00  0.00  0.00  0.00
  YS02001605YS02001607    1.00   0.14  0.00  0.00  0.86  0.00  0.00  0.00  0.00  0.00
  YS02001607YS02001610    1.00   0.13  0.01  0.00  0.85  0.00  0.00  0.00  0.03  0.00
  YS02001610YS02001613    1.00   0.13  0.00  0.00  0.87  0.00  0.00  0.00  0.02  0.00
  YS02001613YS02001616    1.00   0.13  0.00  0.00  0.87  0.00  0.00  0.00  0.01  0.00
  YS02001616YS02001619    1.00   0.13  0.00  0.00  0.87  0.00  0.00  0.00  0.00  0.00
  YS02001619YS02001622    1.00   0.13  0.00  0.00  0.87  0.00  0.00  0.00  0.37  0.00
  YS02001622YS02001625    1.00   0.13  0.00  0.00  0.87  0.00  0.00  0.00  0.07  0.00
  YS02001625YS02001629    1.00   0.13  0.07  0.00  0.08  0.00  0.72  0.00  0.00  0.00
  YS02001629YS02163301    1.00   0.17  0.01  0.00  0.81  0.00  0.00  0.00  0.00  0.00
  YS02001633YS02163601    1.00   0.00  0.01  0.00  0.99  0.00  0.00  0.00  0.16  0.00
  YS02001641YS02001644    1.00   0.00  0.01  0.00  0.99  0.00  0.00  0.00  0.00  0.00
  YS02001644YS02001647    1.00   0.00  0.20  0.00  0.80  0.00  0.00  0.00  0.00  0.00
  YS02001647YS02001649    1.00   0.00  0.20  0.00  0.55  0.25  0.00  0.00  0.61  0.00
  YS02001649YS02001757    1.00   0.00  0.00  0.00  0.74  0.26  0.00  0.00  0.55  0.00
  YS02001652YS02001649    1.00   0.00  0.00  0.00  0.96  0.04  0.00  0.00  0.83  0.00
  YS02001655YS02001652    1.00   0.00  0.00  0.00  0.10  0.01  0.00  0.89  0.05  0.00
  YS02001658YS02001655    1.00   0.00  0.15  0.00  0.61  0.24  0.00  0.00  0.79  0.00
  YS02001661YS02001658    1.00   0.15  0.00  0.00  0.46  0.39  0.00  0.00  0.77  0.00
  YS02001664YS02001661    1.00   0.13  0.00  0.00  0.80  0.08  0.00  0.00  0.87  0.00
  YS02001745YS02001748    1.00   0.00  0.00  0.00  0.00  0.00  0.00  1.00  0.00  0.00
  YS02001748YS02001751    1.00   0.00  0.00  0.00  0.81  0.19  0.00  0.00  0.86  0.00
  YS02001751YS02001754    1.00   0.00  0.00  0.00  0.09  0.00  0.00  0.90  0.05  0.00
  YS02001754YS02001757    1.00   0.00  0.00  0.00  1.00  0.00  0.00  0.00  0.89  0.00
  YS02001757CaochengTiaoxuchi    1.00   0.00  0.00  0.00  1.00  0.00  0.00  0.00  0.87  0.00
  YS02001759YS02001757    1.00   0.00  0.00  0.00  1.00  0.00  0.00  0.00  0.67  0.00
  YS02001762YS02001759    1.00   0.00  0.00  0.00  1.00  0.00  0.00  0.00  0.07  0.00
  YS02001765YS02001762    1.00   0.00  0.00  0.00  1.00  0.00  0.00  0.00  0.80  0.00
  YS02001767YS02001765    1.00   0.00  0.00  0.00  1.00  0.00  0.00  0.00  0.00  0.00
  YS02001770YS02001767    1.00   0.00  0.00  0.00  1.00  0.00  0.00  0.00  0.00  0.00
  YS02001774YS02001770    1.00   0.00  0.14  0.00  0.58  0.00  0.28  0.00  0.05  0.00
  YS02001779YS02001774    1.00   0.00  0.00  0.00  1.00  0.00  0.00  0.00  0.85  0.00
  YS02001783YS02001784    1.00   0.00  0.21  0.00  0.79  0.00  0.00  0.00  0.59  0.00
  YS02001784YS02001785    1.00   0.00  0.00  0.00  1.00  0.00  0.00  0.00  0.20  0.00
  YS02001786YS02001788    1.00   0.00  0.00  0.00  0.81  0.19  0.00  0.00  0.00  0.00
  YS02001788YS02001790    1.00   0.00  0.00  0.00  0.22  0.78  0.00  0.00  0.89  0.00
  YS02001790YS02001791    1.00   0.00  0.00  0.00  0.01  0.99  0.00  0.00  0.14  0.00
  YS02001791YS02001793    1.00   0.00  0.00  0.00  0.00  1.00  0.00  0.00  0.00  0.00
  YS02001793JiankangQianchi    1.00   0.00  0.00  0.00  1.00  0.00  0.00  0.00  1.00  0.00
  YS02001882YS02001884    1.00   0.17  0.02  0.00  0.82  0.00  0.00  0.00  0.00  0.00
  YS02001884YS02001887    1.00   0.06  0.05  0.00  0.89  0.00  0.00  0.00  0.00  0.00
  YS02001887YS02001890    1.00   0.00  0.00  0.00  0.97  0.00  0.03  0.00  0.00  0.00
  YS02001890YS02001895    1.00   0.00  0.19  0.00  0.81  0.00  0.00  0.00  0.00  0.00
  YS02001895YS02001898    1.00   0.19  0.00  0.00  0.79  0.00  0.02  0.00  0.00  0.00
  YS02001898YS02001901    1.00   0.19  0.01  0.00  0.80  0.00  0.00  0.00  0.01  0.00
  YS02001901YS02001904    1.00   0.19  0.00  0.00  0.81  0.00  0.00  0.00  0.00  0.00
  YS02001904YS02001907    1.00   0.00  0.19  0.00  0.81  0.00  0.00  0.00  0.00  0.00
  YS02001907YS02006553    1.00   0.00  0.02  0.00  0.98  0.00  0.00  0.00  0.00  0.00
  YS02001910YS02001907    1.00   0.00  0.00  0.00  0.97  0.00  0.00  0.03  0.12  0.00
  YS02001915YS02001910    1.00   0.00  0.00  0.00  0.97  0.03  0.00  0.00  0.19  0.00
  YS02001918YS02001915    1.00   0.00  0.01  0.00  0.98  0.02  0.00  0.00  0.81  0.00
  YS02001920YS02001918    1.00   0.00  0.01  0.00  0.99  0.00  0.00  0.00  0.00  0.00
  YS02001923YS02001920    1.00   0.00  0.00  0.00  1.00  0.00  0.00  0.00  0.98  0.00
  YS02001926YS02001923    1.00   0.00  0.07  0.00  0.00  0.00  0.93  0.00  0.00  0.00
  YS02001929YS02001926    1.00   0.00  0.13  0.00  0.87  0.00  0.00  0.00  0.87  0.00
  YS02006553YS02006556    1.00   0.01  0.00  0.00  0.99  0.00  0.00  0.00  0.03  0.00
  YS02006556YS02006558    1.00   0.00  0.00  0.00  1.00  0.00  0.00  0.00  0.00  0.00
  YS02006558YS02006561    1.00   0.21  0.00  0.00  0.00  0.79  0.00  0.00  0.18  0.00
  YS02006561YS02001783    1.00   0.21  0.00  0.00  0.03  0.76  0.00  0.00  0.73  0.00
  YS02163301YS02001633    1.00   0.00  0.17  0.00  0.83  0.00  0.00  0.00  0.00  0.00
  YS02163601YS02164001    1.00   0.00  0.08  0.00  0.92  0.00  0.00  0.00  0.00  0.00
  YS02164001YS02001641    1.00   0.01  0.07  0.00  0.92  0.00  0.00  0.00  0.06  0.00
  
  
  *************************
  Conduit Surcharge Summary
  *************************
  
  ----------------------------------------------------------------------------
                                                           Hours        Hours 
                         --------- Hours Full --------   Above Full   Capacity
  Conduit                Both Ends  Upstream  Dnstream   Normal Flow   Limited
  ----------------------------------------------------------------------------
  WS02003072WS02003073        0.01      0.01      0.01      1.48         0.01
  WS02004404WS02004405        0.01      0.01      0.01      1.70         0.01
  WS02004405WS02004406        0.01      0.01      0.01      0.50         0.01
  WS02006109WS02006110        0.58      0.58      1.38      0.66         0.01
  WS02006110WS02006113        0.01      0.01      1.37      0.01         0.01
  WS02006111WS02006112        0.01      0.01      1.44      0.01         0.01
  WS02006112WS02006115        0.01      0.01      0.55      0.01         0.01
  WS02006228WS02006109        1.36      1.38      1.36      1.51         1.36
  WS02006229WS02006228        1.36      1.36      1.36      1.45         1.35
  WS02006230WS02006229        1.41      1.43      1.41      2.04         1.41
  WS02006231WS02006230        0.60      0.60      0.72      1.85         0.01
  WS02006232WS02006231        0.68      0.68      1.38      0.73         0.01
  WS02006234WS02006232        1.32      1.32      1.38      0.72         0.73
  WS02006235WS02006234        1.06      1.06      1.33      1.75         0.02
  WS02006238WS02006235        1.34      1.34      1.38      0.01         0.01
  WS02006239WS02006238        1.36      1.37      1.36      1.37         1.26
  WS02006240WS02006239        1.34      1.36      1.34      1.38         1.22
  WS02006242WS02006240        1.36      1.36      1.38      1.43         0.01
  WS02006243WS02006242        1.35      1.35      1.37      0.01         0.04
  WS02006245WS02006243        1.34      1.35      1.35      0.78         0.72
  WS02006247WS02006245        1.34      1.35      1.34      1.58         1.34
  WS02006248WS02006247        1.34      1.34      1.35      0.01         0.04
  WS02006249WS02006248        1.34      1.34      1.34      1.57         0.01
  WS02006251WS02006249        1.33      1.33      1.34      1.42         1.27
  WS02006252WS02006251        1.50      1.50      1.50      1.50         0.01
  WS02006256WS02006235        1.77      1.79      3.47      0.91         0.01
  YS02001580YS02001583        0.05      0.05      0.11      0.01         0.01
  YS02001583YS02001586        0.07      0.07      0.22      0.01         0.01
  YS02001586YS02001590        0.23      0.23      0.27      0.01         0.01
  YS02001590YS02001593        0.28      0.28      0.29      0.29         0.01
  YS02001593YS02001596        0.29      0.29      0.36      0.01         0.01
  YS02001596YS02001600        0.39      0.39      0.45      0.01         0.01
  YS02001600YS02001601        0.50      0.50      0.73      0.01         0.01
  YS02001601YS02001602        0.63      0.63      0.76      0.46         0.01
  YS02001602YS02001605        0.59      0.59      0.63      1.58         0.01
  YS02001605YS02001607        0.55      0.59      0.55      0.69         0.55
  YS02001607YS02001610        0.23      0.23      0.25      0.01         0.01
  YS02001610YS02001613        0.23      0.23      0.25      0.01         0.01
  YS02001613YS02001616        0.20      0.20      0.23      0.01         0.01
  YS02001616YS02001619        0.19      0.19      0.20      0.01         0.01
  YS02001619YS02001622        0.18      0.19      0.18      0.30         0.18
  YS02001622YS02001625        0.18      0.18      0.32      0.01         0.01
  YS02001625YS02001629        0.12      0.12      0.32      0.01         0.01
  YS02001629YS02163301        0.31      0.31      0.32      0.19         0.17
  YS02001633YS02163601        0.33      0.33      0.35      0.23         0.23
  YS02001641YS02001644        0.23      0.27      0.23      0.82         0.23
  YS02001644YS02001647        0.01      0.01      0.23      0.01         0.01
  YS02001647YS02001649        0.01      0.01      0.07      0.01         0.01
  YS02001649YS02001757        0.06      0.07      0.10      0.06         0.01
  YS02001652YS02001649        0.01      0.01      0.07      0.01         0.01
  YS02001754YS02001757        0.01      0.01      0.10      0.01         0.01
  YS02001757CaochengTiaoxuchi        0.10      0.10      0.96      0.01         0.01
  YS02001759YS02001757        0.01      0.01      0.10      0.01         0.01
  YS02001770YS02001767        0.01      0.01      0.01      0.13         0.01
  YS02001783YS02001784        0.07      0.10      0.07      0.24         0.07
  YS02001784YS02001785        0.01      0.07      0.01      0.39         0.01
  YS02001786YS02001788        0.01      0.01      0.01      0.31         0.01
  YS02001790YS02001791        0.01      0.01      0.01      0.05         0.01
  YS02001793JiankangQianchi        0.01      0.01      7.67      0.01         0.01
  YS02001884YS02001887        0.06      0.06      0.09      0.01         0.01
  YS02001887YS02001890        0.11      0.11      0.13      0.01         0.01
  YS02001890YS02001895        0.01      0.01      0.14      0.01         0.01
  YS02001898YS02001901        0.01      0.01      0.06      0.01         0.01
  YS02001901YS02001904        0.04      0.04      0.06      0.01         0.01
  YS02001904YS02001907        0.04      0.04      0.30      0.01         0.01
  YS02001907YS02006553        0.40      0.40      0.44      0.01         0.01
  YS02001910YS02001907        0.14      0.14      0.29      0.01         0.01
  YS02001915YS02001910        0.01      0.01      0.14      0.01         0.01
  YS02006553YS02006556        0.22      0.22      0.30      0.01         0.01
  YS02006556YS02006558        0.26      0.26      0.31      0.01         0.01
  YS02006558YS02006561        0.01      0.21      0.01      0.36         0.01
  YS02006561YS02001783        0.01      0.01      0.10      0.01         0.01
  YS02163301YS02001633        0.32      0.32      0.35      0.01         0.01
  YS02163601YS02164001        0.27      0.27      0.35      0.11         0.01
  YS02164001YS02001641        0.27      0.27      0.27      0.38         0.26
  
  
  ***************
  Pumping Summary
  ***************
  
  ---------------------------------------------------------------------------------------------------------
                                                  Min       Avg       Max     Total     Power    % Time Off
                        Percent   Number of      Flow      Flow      Flow    Volume     Usage    Pump Curve
  Pump                 Utilized   Start-Ups       LPS       LPS       LPS  10^6 ltr     Kw-hr    Low   High
  ---------------------------------------------------------------------------------------------------------
  CC-R1                   17.65          15      0.00    683.00    683.00     3.473     62.09    0.0   38.0
  CC-R2                    1.04           1      0.00    683.00    683.00     0.205      3.46    0.0  100.0
  CC-S1                   20.40          15      0.00    200.00    200.00     1.175      7.34    0.0    0.0
  CC-S2                   18.74          15      0.00    200.00    200.00     1.080      6.76    0.0    0.0
  JK-R1                    2.88           5      0.00   1000.00   1000.00     0.829      8.19    0.0    0.0
  JK-R2                    0.16           1      0.00   1000.00   1000.00     0.047      0.36    0.0    0.0
  JK-S                    11.35          10      0.00    300.00    300.00     0.981     16.98    0.0    0.0
  XR-1                    97.91           2      0.00     95.00     95.00     2.679      9.60    0.0    0.0
  XR-2                    93.94           2      0.00     95.00     95.00     2.570      8.76    0.0    0.0
  XR-3                     0.00           1      0.00     95.00     95.00     0.000      0.00    0.0    0.0
  XR-4                     0.00           1      0.00     95.00     95.00     0.000      0.00    0.0    0.0
  

  Analysis begun on:  Wed Nov  5 16:31:26 2025
  Analysis ended on:  Wed Nov  5 16:31:28 2025
  Total elapsed time: 00:00:02