
  EPA STORM WATER MANAGEMENT MODEL - VERSION 5.2 (Build 5.2.4)
  PYSWMM TOOLKIT API - VERSION v1.0 (2023-11-27)
  ------------------------------------------------------------

  WARNING 04: minimum elevation drop used for Conduit WS02004404WS02004405
  WARNING 03: negative offset ignored for Link YS02001904YS02001907
  
  ****************
  Analysis Options
  ****************
  Flow Units ............... LPS
  Process Models:
    Rainfall/Runoff ........ YES
    RDII ................... NO
    Snowmelt ............... NO
    Groundwater ............ NO
    Flow Routing ........... YES
    Ponding Allowed ........ NO
    Water Quality .......... NO
  Infiltration Method ...... HORTON
  Flow Routing Method ...... DYNWAVE
  Surcharge Method ......... EXTRAN
  Starting Date ............ 08/28/2015 08:00:00
  Ending Date .............. 08/28/2015 16:00:00
  Antecedent Dry Days ...... 8.0
  Report Time Step ......... 00:01:00
  Wet Time Step ............ 00:01:00
  Dry Time Step ............ 00:01:00
  Routing Time Step ........ 30.00 sec
  Variable Time Step ....... YES
  Maximum Trials ........... 8
  Number of Threads ........ 4
  Head Tolerance ........... 0.001500 m
  
  
  **************************        Volume         Depth
  Runoff Quantity Continuity     hectare-m            mm
  **************************     ---------       -------
  Initial LID Storage ......         0.049         1.488
  Total Precipitation ......         2.228        67.163
  Evaporation Loss .........         0.000         0.000
  Infiltration Loss ........         0.078         2.359
  Surface Runoff ...........         1.654        49.878
  Final Storage ............         0.545        16.428
  Continuity Error (%) .....        -0.020
  
  
  **************************        Volume        Volume
  Flow Routing Continuity        hectare-m      10^6 ltr
  **************************     ---------     ---------
  Dry Weather Inflow .......         0.602         6.020
  Wet Weather Inflow .......         1.654        16.544
  Groundwater Inflow .......         0.000         0.000
  RDII Inflow ..............         0.000         0.000
  External Inflow ..........         0.105         1.045
  External Outflow .........         1.916        19.159
  Flooding Loss ............         0.425         4.251
  Evaporation Loss .........         0.000         0.000
  Exfiltration Loss ........         0.000         0.000
  Initial Stored Volume ....         0.303         3.031
  Final Stored Volume ......         0.329         3.291
  Continuity Error (%) .....        -0.226
  
  
  *************************
  Highest Continuity Errors
  *************************
  Node YS02001583 (-5.47%)
  Node YS02001884 (5.08%)
  
  
  ***************************
  Time-Step Critical Elements
  ***************************
  Link WS02004404WS02004405 (27.68%)
  Link WS02006238WS02006235 (20.94%)
  Link WS02006252WS02006251 (11.81%)
  Link YS02001791YS02001793 (11.47%)
  Link WS02003066WSF200 (8.82%)
  
  
  ********************************
  Highest Flow Instability Indexes
  ********************************
  Link WS02006113WS02006111 (30)
  Link WS02006252WS02006251 (23)
  Link WS02006238WS02006235 (20)
  Link WS02006111WS02006112 (16)
  Link YS02006558YS02006561 (16)
  
  
  *********************************
  Most Frequent Nonconverging Nodes
  *********************************
  Node CC-1 (18.09%)
  Node CC-2 (18.09%)
  Node JK-1 (18.09%)
  Node JK-2 (18.09%)
  Node WSC (18.09%)
  
  
  *************************
  Routing Time Step Summary
  *************************
  Minimum Time Step           :     0.02 sec
  Average Time Step           :     3.19 sec
  Maximum Time Step           :     7.04 sec
  % of Time in Steady State   :     0.00
  Average Iterations per Step :     3.51
  % of Steps Not Converging   :    18.09
  Time Step Frequencies       :
     30.000 - 13.228 sec      :     0.00 %
     13.228 -  5.833 sec      :    19.94 %
      5.833 -  2.572 sec      :    34.04 %
      2.572 -  1.134 sec      :    24.16 %
      1.134 -  0.500 sec      :    21.85 %
  
  
  ***************************
  Subcatchment Runoff Summary
  ***************************
  
  ------------------------------------------------------------------------------------------------------------------------------
                            Total      Total      Total      Total     Imperv       Perv      Total       Total     Peak  Runoff
                           Precip      Runon       Evap      Infil     Runoff     Runoff     Runoff      Runoff   Runoff   Coeff
  Subcatchment                 mm         mm         mm         mm         mm         mm         mm    10^6 ltr      LPS
  ------------------------------------------------------------------------------------------------------------------------------
  sub60                     67.16       0.00       0.00       1.40      44.69       4.82      49.51        0.65   430.94   0.737
  sub61                     67.16       0.00       0.00       2.15      44.65       7.19      51.84        0.95   630.06   0.772
  sub62                     67.16       0.00       0.00       0.95      47.60       3.28      50.88        1.39   861.68   0.758
  sub63                     67.16       0.00       0.00       3.94      38.24      12.01      50.25        1.14   722.14   0.748
  sub64                     67.16       0.00       0.00       1.89      43.54       5.96      49.51        1.19   710.37   0.737
  sub65                     67.16       0.00       0.00       1.73      47.00       5.44      52.44        1.44   834.78   0.781
  sub66                     67.16       0.00       0.00       4.62      36.98      10.83      47.81        2.23  1107.22   0.712
  sub67                     67.16       0.00       0.00       0.94      48.80       3.39      52.19        0.97   664.87   0.777
  sub68                     67.16       0.00       0.00       1.65      43.10       5.52      48.61        1.34   859.90   0.724
  sub69                     67.16       0.00       0.00       1.52      45.16       6.47      51.63        1.91  1078.54   0.769
  sub70                     67.16       0.00       0.00       5.11      36.18      13.58      49.76        1.44   642.38   0.741
  sub71                     67.16       0.00       0.00       0.88      43.24       2.96      46.20        1.21   715.70   0.688
  sub72                     67.16       0.00       0.00       0.84      46.71       2.76      49.47        0.68   373.91   0.737
  

  ***********************
  LID Performance Summary
  ***********************

  --------------------------------------------------------------------------------------------------------------------
                                         Total      Evap     Infil   Surface    Drain    Initial     Final  Continuity
                                        Inflow      Loss      Loss   Outflow   Outflow   Storage   Storage       Error
  Subcatchment      LID Control             mm        mm        mm        mm        mm        mm        mm           %
  --------------------------------------------------------------------------------------------------------------------
  sub60             GreenRoof            67.16      0.00      0.00      0.00      0.00      7.05     74.23       -0.02
  sub61             GreenRoof            67.16      0.00      0.00      0.00      0.00      7.05     74.23       -0.02
  sub62             GreenRoof            67.16      0.00      0.00      0.00      0.00      7.05     74.23       -0.02
  sub63             GreenRoof            67.16      0.00      0.00      0.00      0.00      7.05     74.23       -0.02
  sub64             GreenRoof            67.16      0.00      0.00      0.00      0.00      7.05     74.23       -0.02
  sub65             GreenRoof            67.16      0.00      0.00      0.00      0.00      7.05     74.23       -0.02
  sub66             GreenRoof            67.16      0.00      0.00      0.00      0.00      7.05     74.23       -0.02
  sub67             GreenRoof            67.16      0.00      0.00      0.00      0.00      7.05     74.23       -0.02
  sub68             GreenRoof            67.16      0.00      0.00      0.00      0.00      7.05     74.23       -0.02
  sub69             GreenRoof            67.16      0.00      0.00      0.00      0.00      7.05     74.23       -0.02
  sub70             GreenRoof            67.16      0.00      0.00      0.00      0.00      7.05     74.23       -0.02
  sub71             GreenRoof            67.16      0.00      0.00      0.00      0.00      7.05     74.23       -0.02
  sub72             GreenRoof            67.16      0.00      0.00      0.00      0.00      7.05     74.23       -0.02
  
  ******************
  Node Depth Summary
  ******************
  
  ---------------------------------------------------------------------------------
                                 Average  Maximum  Maximum  Time of Max    Reported
                                   Depth    Depth      HGL   Occurrence   Max Depth
  Node                 Type       Meters   Meters   Meters  days hr:min      Meters
  ---------------------------------------------------------------------------------
  WS02001211           JUNCTION     0.60     0.64     5.48     0  02:30        0.64
  WS02001212           JUNCTION     0.34     0.38     5.45     0  02:33        0.38
  WS02001213           JUNCTION     0.53     0.65     5.41     0  02:32        0.65
  WS02003059           JUNCTION     0.60     0.72     5.40     0  02:28        0.72
  WS02003060           JUNCTION     0.30     0.45     5.38     0  02:31        0.45
  WS02003066           JUNCTION     0.16     0.30     5.85     0  02:23        0.30
  WS02003067           JUNCTION     0.44     0.70     6.02     0  02:22        0.70
  WS02003069           JUNCTION     0.34     0.51     5.09     0  02:29        0.51
  WS02003072           JUNCTION     0.41     0.57     4.94     0  02:29        0.57
  WS02003073           JUNCTION     0.24     0.35     4.41     0  02:30        0.35
  WS02004138           JUNCTION     0.13     0.14     7.39     0  00:29        0.14
  WS02004139           JUNCTION     0.54     0.58     5.49     0  02:31        0.58
  WS02004401           JUNCTION     0.53     0.85     6.85     0  02:20        0.85
  WS02004402           JUNCTION     0.56     0.88     6.84     0  02:20        0.88
  WS02004403           JUNCTION     0.59     0.89     6.82     0  02:20        0.89
  WS02004404           JUNCTION     0.66     0.96     6.81     0  02:21        0.96
  WS02004405           JUNCTION     0.66     0.95     6.80     0  02:21        0.95
  WS02004406           JUNCTION     0.67     0.96     6.79     0  02:18        0.96
  WS02004407           JUNCTION     0.14     0.30     6.61     0  02:21        0.29
  WS02004409           JUNCTION     0.32     0.67     6.44     0  02:21        0.67
  WS02004410           JUNCTION     0.35     0.68     6.40     0  02:22        0.68
  WS02004411           JUNCTION     0.37     0.69     6.37     0  02:22        0.69
  WS02004412           JUNCTION     0.40     0.70     6.34     0  02:22        0.70
  WS02004413           JUNCTION     0.55     0.86     6.33     0  02:22        0.86
  WS02006109           JUNCTION     0.60     1.27     7.89     0  02:03        0.99
  WS02006110           JUNCTION     0.60     1.29     7.88     0  02:37        0.95
  WS02006111           JUNCTION     0.15     0.29     7.00     0  02:16        0.29
  WS02006112           JUNCTION     0.68     1.10     6.98     0  02:32        1.06
  WS02006113           JUNCTION     0.23     0.46     7.35     0  02:16        0.46
  WS02006115           JUNCTION     0.42     0.75     6.89     0  02:20        0.75
  WS02006116           JUNCTION     0.50     0.83     6.87     0  02:20        0.83
  WS02006228           JUNCTION     0.59     1.35     8.00     0  02:21        1.06
  WS02006229           JUNCTION     0.56     1.40     8.09     0  02:21        1.10
  WS02006230           JUNCTION     0.56     1.69     8.43     0  02:21        1.29
  WS02006231           JUNCTION     0.37     1.54     8.67     0  02:25        1.24
  WS02006232           JUNCTION     0.50     1.78     8.82     0  02:02        1.60
  WS02006234           JUNCTION     0.43     1.96     9.12     0  02:21        1.96
  WS02006235           JUNCTION     0.47     2.00     9.16     0  02:02        2.00
  WS02006238           JUNCTION     0.50     2.15     9.29     0  02:02        2.15
  WS02006239           JUNCTION     0.46     2.03     9.24     0  02:02        2.03
  WS02006240           JUNCTION     0.44     2.10     9.39     0  02:21        2.10
  WS02006242           JUNCTION     0.50     1.55     8.82     0  02:00        1.55
  WS02006243           JUNCTION     0.42     1.48     8.90     0  02:21        1.48
  WS02006245           JUNCTION     0.42     1.56     9.04     0  02:21        1.56
  WS02006247           JUNCTION     0.44     1.47     8.97     0  02:21        1.47
  WS02006248           JUNCTION     0.41     1.10     8.69     0  02:02        1.10
  WS02006249           JUNCTION     0.44     1.09     8.69     0  02:02        1.09
  WS02006251           JUNCTION     0.44     1.66     9.33     0  02:03        1.38
  WS02006252           JUNCTION     0.30     1.50     9.74     0  00:00        0.93
  WS02006256           JUNCTION     1.09     2.35     9.28     0  00:00        2.35
  WSF200               JUNCTION     0.14     0.31     5.54     0  02:30        0.31
  YS02001580           JUNCTION     0.11     1.05     9.59     0  02:04        0.77
  YS02001583           JUNCTION     0.14     1.14     9.64     0  02:04        0.90
  YS02001586           JUNCTION     0.24     1.13     9.30     0  02:04        1.13
  YS02001590           JUNCTION     0.35     1.40     9.26     0  02:04        1.37
  YS02001593           JUNCTION     0.28     1.34     9.20     0  02:04        1.33
  YS02001596           JUNCTION     0.40     1.80     9.22     0  02:21        1.80
  YS02001600           JUNCTION     0.50     1.87     9.00     0  02:04        1.87
  YS02001601           JUNCTION     0.70     2.06     8.90     0  02:03        2.06
  YS02001602           JUNCTION     0.60     1.87     8.77     0  02:05        1.87
  YS02001605           JUNCTION     0.55     1.78     8.68     0  02:21        1.78
  YS02001607           JUNCTION     0.52     1.68     8.53     0  02:21        1.68
  YS02001610           JUNCTION     0.56     1.68     8.48     0  02:06        1.68
  YS02001613           JUNCTION     0.52     1.69     8.53     0  02:21        1.69
  YS02001616           JUNCTION     0.45     1.61     8.52     0  02:21        1.59
  YS02001619           JUNCTION     0.43     1.61     8.54     0  02:21        1.58
  YS02001622           JUNCTION     0.42     1.58     8.49     0  02:21        1.56
  YS02001625           JUNCTION     0.67     1.78     8.38     0  02:06        1.78
  YS02001629           JUNCTION     0.56     1.85     8.40     0  02:07        1.85
  YS02001633           JUNCTION     0.64     2.01     8.47     0  02:08        1.98
  YS02001641           JUNCTION     0.61     1.95     8.39     0  02:08        1.94
  YS02001644           JUNCTION     0.60     1.92     8.35     0  02:09        1.92
  YS02001647           JUNCTION     0.38     1.77     8.38     0  02:10        1.73
  YS02001649           JUNCTION     0.43     2.01     8.40     0  02:10        1.93
  YS02001652           JUNCTION     0.31     1.85     8.44     0  02:12        1.77
  YS02001655           JUNCTION     0.23     1.66     8.51     0  02:09        1.56
  YS02001658           JUNCTION     0.17     1.54     8.68     0  02:09        1.31
  YS02001661           JUNCTION     0.18     1.28     8.68     0  02:12        1.10
  YS02001664           JUNCTION     0.07     0.52     8.45     0  02:12        0.50
  YS02001745           JUNCTION     0.09     0.75     8.27     0  02:12        0.75
  YS02001748           JUNCTION     0.16     1.91     8.98     0  02:10        1.19
  YS02001751           JUNCTION     0.20     1.87     8.75     0  02:10        1.37
  YS02001754           JUNCTION     0.27     1.86     8.47     0  02:10        1.64
  YS02001757           JUNCTION     0.45     2.09     8.35     0  02:10        1.97
  YS02001759           JUNCTION     0.39     2.05     8.41     0  02:10        1.96
  YS02001762           JUNCTION     0.38     2.00     8.40     0  02:10        1.93
  YS02001765           JUNCTION     0.36     1.98     8.43     0  02:10        1.89
  YS02001767           JUNCTION     0.35     1.95     8.44     0  02:10        1.86
  YS02001770           JUNCTION     0.36     1.94     8.43     0  02:10        1.91
  YS02001774           JUNCTION     0.43     2.01     8.43     0  02:08        1.97
  YS02001779           JUNCTION     0.25     1.68     8.37     0  02:07        1.68
  YS02001783           JUNCTION     0.30     1.34     7.48     0  02:21        1.34
  YS02001784           JUNCTION     0.31     1.12     7.19     0  02:11        1.12
  YS02001786           JUNCTION     0.26     0.87     6.90     0  02:16        0.87
  YS02001788           JUNCTION     0.19     0.62     6.60     0  02:12        0.62
  YS02001790           JUNCTION     0.22     0.72     6.37     0  02:10        0.71
  YS02001791           JUNCTION     0.14     0.44     5.91     0  02:10        0.42
  YS02001793           JUNCTION     0.08     0.29     5.12     0  02:11        0.28
  YS02001882           JUNCTION     0.36     1.67     8.38     0  02:09        1.63
  YS02001884           JUNCTION     0.45     1.76     8.37     0  02:09        1.74
  YS02001887           JUNCTION     0.53     1.82     8.36     0  02:09        1.81
  YS02001890           JUNCTION     0.55     1.81     8.32     0  02:09        1.81
  YS02001895           JUNCTION     0.33     1.70     8.44     0  02:21        1.70
  YS02001898           JUNCTION     0.34     1.73     8.47     0  02:21        1.73
  YS02001901           JUNCTION     0.45     1.77     8.38     0  02:21        1.77
  YS02001904           JUNCTION     0.43     1.75     8.38     0  02:21        1.75
  YS02001907           JUNCTION     0.74     1.96     8.25     0  02:09        1.96
  YS02001910           JUNCTION     0.54     1.97     8.47     0  02:09        1.84
  YS02001915           JUNCTION     0.36     1.92     8.64     0  02:09        1.70
  YS02001918           JUNCTION     0.19     1.81     8.88     0  02:09        1.38
  YS02001920           JUNCTION     0.27     2.06     9.07     0  02:09        1.51
  YS02001923           JUNCTION     0.14     2.01     9.27     0  02:09        1.39
  YS02001926           JUNCTION     0.18     1.90     9.35     0  02:09        1.23
  YS02001929           JUNCTION     0.10     1.78     9.47     0  02:09        1.10
  YS02006553           JUNCTION     0.75     2.02     8.31     0  02:21        2.02
  YS02006556           JUNCTION     0.72     1.95     8.26     0  02:12        1.95
  YS02006558           JUNCTION     0.76     1.99     8.26     0  02:11        1.98
  YS02006561           JUNCTION     0.18     0.91     7.57     0  02:09        0.89
  YS02163301           JUNCTION     0.58     1.92     8.43     0  02:08        1.90
  YS02163601           JUNCTION     0.67     2.04     8.43     0  02:08        2.00
  YS02164001           JUNCTION     0.60     1.95     8.41     0  02:08        1.93
  CC-1                 OUTFALL      0.00     0.00     0.00     0  00:00        0.00
  CC-2                 OUTFALL      0.00     0.00     0.00     0  00:00        0.00
  JK-1                 OUTFALL      0.00     0.00     0.00     0  00:00        0.00
  JK-2                 OUTFALL      0.00     0.00     0.00     0  00:00        0.00
  WSC                  OUTFALL      0.24     0.35     1.02     0  02:30        0.35
  CC-storage           STORAGE      0.88     1.71     7.21     0  02:34        1.71
  JK-storage           STORAGE      3.22     4.23     5.03     0  02:11        4.23
  XR-storage           STORAGE      7.83     9.26     7.26     0  08:00        9.26
  
  
  *******************
  Node Inflow Summary
  *******************
  
  -------------------------------------------------------------------------------------------------
                                  Maximum  Maximum                  Lateral       Total        Flow
                                  Lateral    Total  Time of Max      Inflow      Inflow     Balance
                                   Inflow   Inflow   Occurrence      Volume      Volume       Error
  Node                 Type           LPS      LPS  days hr:min    10^6 ltr    10^6 ltr     Percent
  -------------------------------------------------------------------------------------------------
  WS02001211           JUNCTION      7.35   200.27     0  03:23       0.212        5.44       0.611
  WS02001212           JUNCTION      0.00   202.35     0  03:47           0        5.41       0.290
  WS02001213           JUNCTION      0.00   204.46     0  03:48           0        5.39       0.332
  WS02003059           JUNCTION      0.00   209.52     0  03:48           0        5.38       0.593
  WS02003060           JUNCTION     16.53   749.57     0  02:31       0.476        9.38       0.152
  WS02003066           JUNCTION      0.00   533.58     0  02:23           0        3.55       0.038
  WS02003067           JUNCTION      0.00   533.51     0  02:22           0        3.56       0.118
  WS02003069           JUNCTION      0.32   746.32     0  02:29     0.00922        9.36       0.161
  WS02003072           JUNCTION      0.00   745.93     0  02:29           0        9.35       0.220
  WS02003073           JUNCTION      1.82   747.51     0  02:29      0.0524        9.38       0.227
  WS02004138           JUNCTION      0.00   380.00     0  00:00           0        5.25       0.053
  WS02004139           JUNCTION      0.32   191.16     0  00:29     0.00924        5.26       0.509
  WS02004401           JUNCTION      0.00   542.84     0  02:17           0        3.66       0.275
  WS02004402           JUNCTION      0.00   540.58     0  02:17           0        3.65       0.280
  WS02004403           JUNCTION      0.00   540.14     0  02:17           0        3.64       0.274
  WS02004404           JUNCTION      0.16   538.37     0  02:17     0.00467        3.63       0.229
  WS02004405           JUNCTION      0.04   538.70     0  02:17      0.0011        3.63       0.343
  WS02004406           JUNCTION      0.00   539.73     0  02:17           0        3.61       0.568
  WS02004407           JUNCTION      0.00   536.21     0  02:18           0        3.59       0.029
  WS02004409           JUNCTION      0.00   535.50     0  02:21           0        3.59       0.072
  WS02004410           JUNCTION      0.00   534.68     0  02:22           0        3.59       0.119
  WS02004411           JUNCTION      0.00   534.44     0  02:22           0        3.58       0.154
  WS02004412           JUNCTION      0.00   534.04     0  02:22           0        3.58       0.207
  WS02004413           JUNCTION      0.00   533.65     0  02:22           0        3.57       0.368
  WS02006109           JUNCTION      1.23   588.11     0  02:21      0.0354         3.7       0.223
  WS02006110           JUNCTION      0.00   593.51     0  02:21           0         3.7       0.187
  WS02006111           JUNCTION      0.00   565.32     0  02:16           0        3.69       0.022
  WS02006112           JUNCTION      0.00   545.65     0  02:16           0        3.69       0.485
  WS02006113           JUNCTION      0.00   581.21     0  02:16           0        3.69       0.044
  WS02006115           JUNCTION      0.00   550.09     0  02:44           0        3.67       0.172
  WS02006116           JUNCTION      0.00   542.95     0  02:17           0        3.66       0.153
  WS02006228           JUNCTION      0.00   578.41     0  02:21           0        3.67       0.089
  WS02006229           JUNCTION      0.00   574.36     0  02:21           0        3.68       0.150
  WS02006230           JUNCTION     10.28   628.52     0  03:26       0.296        3.68       0.113
  WS02006231           JUNCTION      0.00   598.55     0  02:21           0        3.38      -0.161
  WS02006232           JUNCTION      0.00   595.92     0  02:21           0        3.39       0.348
  WS02006234           JUNCTION      0.00   590.04     0  02:21           0        3.38      -0.320
  WS02006235           JUNCTION      0.00   566.37     0  02:06           0        3.47       0.235
  WS02006238           JUNCTION      0.00   428.95     0  03:25           0        2.54      -0.146
  WS02006239           JUNCTION      0.00   427.81     0  03:25           0        2.49      -0.042
  WS02006240           JUNCTION      0.00   425.15     0  03:25           0        2.45      -0.062
  WS02006242           JUNCTION      0.00   427.80     0  03:25           0        2.42      -0.139
  WS02006243           JUNCTION      0.00   429.36     0  03:25           0         2.4      -0.033
  WS02006245           JUNCTION      0.00   430.59     0  03:25           0         2.4       0.425
  WS02006247           JUNCTION      0.00   431.14     0  03:25           0         2.4      -0.019
  WS02006248           JUNCTION      0.00   432.58     0  03:25           0         2.4      -0.083
  WS02006249           JUNCTION      0.00   458.97     0  00:00           0        2.63       0.471
  WS02006251           JUNCTION      0.08   413.73     0  02:03     0.00222        2.63       0.033
  WS02006252           JUNCTION      0.00   400.00     0  00:00           0        2.62      -0.342
  WS02006256           JUNCTION      0.00   300.00     0  00:00           0        1.41      -0.920
  WSF200               JUNCTION      0.00   533.59     0  02:23           0        3.55       0.016
  YS02001580           JUNCTION      0.00    78.84     0  02:03           0     0.00396       1.429
  YS02001583           JUNCTION      0.00   138.57     0  02:03           0      0.0151      -5.185
  YS02001586           JUNCTION    642.38   642.46     0  02:15        1.44        1.45       0.074
  YS02001590           JUNCTION      0.00   318.76     0  02:16           0        1.21      -0.026
  YS02001593           JUNCTION      0.00   318.31     0  02:16           0        1.21       0.008
  YS02001596           JUNCTION      0.00   317.98     0  02:20           0        1.21      -0.013
  YS02001600           JUNCTION      0.00   319.72     0  02:21           0        1.21       0.018
  YS02001601           JUNCTION   1078.54  1396.45     0  02:14        1.91        3.12       0.024
  YS02001602           JUNCTION      0.00   500.61     0  02:03           0        2.12       0.016
  YS02001605           JUNCTION      0.00   501.04     0  02:03           0        2.02       0.025
  YS02001607           JUNCTION      0.00   500.33     0  02:03           0        2.02       0.092
  YS02001610           JUNCTION      0.00   568.85     0  02:15           0        2.11       0.111
  YS02001613           JUNCTION      0.00   498.04     0  02:02           0        1.76       0.089
  YS02001616           JUNCTION      0.00   498.43     0  02:02           0        1.76       0.018
  YS02001619           JUNCTION   1107.22  1107.22     0  02:14        2.23        3.89      -0.001
  YS02001622           JUNCTION      0.00   914.25     0  02:06           0         3.8      -0.001
  YS02001625           JUNCTION      0.00  1202.89     0  02:14           0        3.92       0.234
  YS02001629           JUNCTION      0.00   913.88     0  02:06           0        3.16       0.021
  YS02001633           JUNCTION    834.98  1305.76     0  02:06        1.45        4.48       0.077
  YS02001641           JUNCTION      0.00  1305.60     0  02:06           0        4.35       0.066
  YS02001644           JUNCTION    710.40  1642.55     0  02:06        1.19        5.54       0.060
  YS02001647           JUNCTION      0.00  1642.28     0  02:06           0        5.33       0.011
  YS02001649           JUNCTION      0.00  1815.17     0  02:05           0        6.48       0.006
  YS02001652           JUNCTION      0.00   755.20     0  02:13           0        1.15      -0.075
  YS02001655           JUNCTION      0.15   754.79     0  02:14     0.00443        1.15       0.033
  YS02001658           JUNCTION      0.00   753.72     0  02:14           0        1.14      -0.045
  YS02001661           JUNCTION      0.00   871.17     0  02:12           0        1.14      -0.009
  YS02001664           JUNCTION    722.14   722.14     0  02:13        1.14        1.14      -0.008
  YS02001745           JUNCTION    430.95   430.95     0  02:13       0.651       0.651       0.169
  YS02001748           JUNCTION      0.04   490.59     0  02:09      0.0013       0.651      -0.330
  YS02001751           JUNCTION      0.01   439.11     0  02:13    0.000317        0.66       0.103
  YS02001754           JUNCTION      0.26   439.70     0  02:13     0.00749       0.677      -0.164
  YS02001757           JUNCTION      0.00  3034.15     0  02:12           0        9.45       0.012
  YS02001759           JUNCTION    630.10  1244.41     0  02:12       0.952         2.3      -0.018
  YS02001762           JUNCTION      0.00   680.37     0  02:11           0        1.35       0.003
  YS02001765           JUNCTION      0.00   680.93     0  02:11           0        1.35       0.007
  YS02001767           JUNCTION      0.54   681.27     0  02:11      0.0154        1.35       0.015
  YS02001770           JUNCTION    861.84   861.84     0  02:13         1.4        1.44      -0.022
  YS02001774           JUNCTION      0.00   286.00     0  02:07           0       0.125       0.619
  YS02001779           JUNCTION      0.01   289.59     0  02:07    0.000144      0.0817      -0.862
  YS02001783           JUNCTION      0.00  1159.15     0  02:13           0        3.57       0.007
  YS02001784           JUNCTION      1.06  1160.47     0  02:12      0.0305         3.6       0.013
  YS02001786           JUNCTION      0.06  1160.37     0  02:13     0.00162         3.6       0.019
  YS02001788           JUNCTION      0.07  1160.53     0  02:13     0.00204         3.6       0.008
  YS02001790           JUNCTION      0.15  1170.19     0  02:12     0.00446        3.61       0.027
  YS02001791           JUNCTION      0.00  1284.42     0  02:10           0        3.61      -0.027
  YS02001793           JUNCTION      0.00  1248.59     0  02:16           0        3.61       0.006
  YS02001882           JUNCTION      0.00    32.18     0  02:06           0       0.013       6.129
  YS02001884           JUNCTION      0.00    65.17     0  02:06           0       0.049       5.352
  YS02001887           JUNCTION    665.32   665.32     0  02:13       0.984        1.02       0.449
  YS02001890           JUNCTION      0.00   666.00     0  02:13           0       0.976       0.531
  YS02001895           JUNCTION      0.00   516.71     0  02:15           0       0.938       0.162
  YS02001898           JUNCTION      0.00   516.93     0  02:15           0       0.937       0.025
  YS02001901           JUNCTION      0.00   517.04     0  02:15           0       0.939       0.352
  YS02001904           JUNCTION      0.00   516.75     0  02:16           0       0.943       0.292
  YS02001907           JUNCTION      0.00  1661.43     0  02:13           0        2.91       0.621
  YS02001910           JUNCTION      0.00  1147.51     0  02:13           0        1.97       0.367
  YS02001915           JUNCTION    715.72  1147.15     0  02:13        1.21           2       0.070
  YS02001918           JUNCTION      0.00   455.16     0  02:10           0       0.818       0.021
  YS02001920           JUNCTION      2.87   454.11     0  02:10      0.0827       0.804       0.125
  YS02001923           JUNCTION      0.04   415.92     0  02:13     0.00109       0.707      -0.059
  YS02001926           JUNCTION      0.05   412.05     0  02:13      0.0015       0.689       0.001
  YS02001929           JUNCTION    373.91   373.91     0  02:14        0.68        0.68      -0.146
  YS02006553           JUNCTION      0.00   794.22     0  02:25           0        2.25       0.528
  YS02006556           JUNCTION      0.00   794.78     0  02:25           0        2.26       0.363
  YS02006558           JUNCTION    860.78  1159.68     0  02:12        1.36         3.6       0.097
  YS02006561           JUNCTION      0.00  1159.36     0  02:13           0        3.57       0.002
  YS02163301           JUNCTION      0.00   913.99     0  02:06           0        3.16       0.047
  YS02163601           JUNCTION      0.11  1305.35     0  02:06     0.00317        4.35       0.115
  YS02164001           JUNCTION      0.00  1306.45     0  02:06           0        4.35       0.054
  CC-1                 OUTFALL       0.00   683.00     0  00:00           0        3.93       0.000
  CC-2                 OUTFALL       0.00   683.00     0  00:00           0        3.67       0.000
  JK-1                 OUTFALL       0.00  1000.00     0  00:00           0        2.15       0.000
  JK-2                 OUTFALL       0.00  1000.00     0  00:00           0      0.0484       0.000
  WSC                  OUTFALL       0.00   747.39     0  02:30           0        9.36       0.000
  CC-storage           STORAGE       0.00  3033.93     0  02:12           0        11.7      -0.205
  JK-storage           STORAGE       0.00  1213.69     0  02:20           0        3.76      -0.011
  XR-storage           STORAGE     200.00   200.00     0  00:00        5.76        6.36       0.001
  
  
  **********************
  Node Surcharge Summary
  **********************
  
  Surcharging occurs when water rises above the top of the highest conduit.
  ---------------------------------------------------------------------
                                               Max. Height   Min. Depth
                                   Hours       Above Crown    Below Rim
  Node                 Type      Surcharged         Meters       Meters
  ---------------------------------------------------------------------
  WS02006109           JUNCTION        1.55          0.454        1.366
  WS02006110           JUNCTION        0.65          0.385        1.465
  WS02006112           JUNCTION        0.84          0.100        1.580
  WS02006228           JUNCTION        1.54          0.520        1.680
  WS02006229           JUNCTION        1.55          0.598        1.852
  WS02006230           JUNCTION        0.65          0.606        0.964
  WS02006231           JUNCTION        0.87          0.834        0.696
  WS02006232           JUNCTION        1.58          1.083        0.397
  WS02006234           JUNCTION        1.25          1.240        0.000
  WS02006235           JUNCTION        1.48          1.290        0.000
  WS02006238           JUNCTION        1.54          1.430        0.000
  WS02006239           JUNCTION        1.51          1.290        0.000
  WS02006240           JUNCTION        1.54          1.390        0.000
  WS02006242           JUNCTION        1.59          0.820        0.000
  WS02006243           JUNCTION        1.54          0.770        0.000
  WS02006245           JUNCTION        1.54          0.850        0.000
  WS02006247           JUNCTION        1.55          0.760        0.000
  WS02006248           JUNCTION        1.53          0.380        0.000
  WS02006249           JUNCTION        1.55          0.390        0.000
  WS02006251           JUNCTION        0.98          0.626        0.554
  WS02006252           JUNCTION        1.72          1.100        0.000
  WS02006256           JUNCTION        4.44          2.050        0.000
  YS02001580           JUNCTION        0.53          0.450        0.000
  YS02001583           JUNCTION        0.53          0.500        0.000
  YS02001586           JUNCTION        0.64          0.510        0.000
  YS02001590           JUNCTION        0.72          0.750        0.000
  YS02001593           JUNCTION        0.73          0.721        0.119
  YS02001596           JUNCTION        0.84          1.070        0.000
  YS02001600           JUNCTION        1.00          1.190        0.000
  YS02001601           JUNCTION        1.37          1.440        0.000
  YS02001602           JUNCTION        1.26          1.270        0.000
  YS02001605           JUNCTION        1.21          1.180        0.000
  YS02001607           JUNCTION        0.71          0.680        0.000
  YS02001610           JUNCTION        0.73          0.680        0.000
  YS02001613           JUNCTION        0.70          0.690        0.010
  YS02001616           JUNCTION        0.66          0.610        0.000
  YS02001619           JUNCTION        0.65          0.609        0.001
  YS02001622           JUNCTION        0.65          0.582        0.038
  YS02001625           JUNCTION        0.83          0.780        0.000
  YS02001629           JUNCTION        0.60          0.470        0.000
  YS02001633           JUNCTION        0.86          0.991        0.069
  YS02001641           JUNCTION        0.80          0.948        0.152
  YS02001644           JUNCTION        0.77          0.920        0.000
  YS02001647           JUNCTION        0.57          0.767        0.133
  YS02001649           JUNCTION        0.69          1.006        0.044
  YS02001652           JUNCTION        0.50          0.816        0.314
  YS02001655           JUNCTION        0.36          0.664        0.536
  YS02001658           JUNCTION        0.18          0.542        0.758
  YS02001661           JUNCTION        0.01          0.209        1.181
  YS02001748           JUNCTION        0.12          0.825        0.365
  YS02001751           JUNCTION        0.26          0.872        0.328
  YS02001754           JUNCTION        0.43          0.814        0.336
  YS02001757           JUNCTION        0.76          1.092        0.118
  YS02001759           JUNCTION        0.66          1.048        0.162
  YS02001762           JUNCTION        0.63          0.999        0.151
  YS02001765           JUNCTION        0.59          0.983        0.117
  YS02001767           JUNCTION        0.56          0.952        0.078
  YS02001770           JUNCTION        0.53          0.908        0.012
  YS02001774           JUNCTION        0.61          1.008        0.042
  YS02001779           JUNCTION        0.41          0.680        0.000
  YS02001783           JUNCTION        0.43          0.542        1.058
  YS02001784           JUNCTION        0.40          0.320        1.170
  YS02001786           JUNCTION        0.30          0.074        1.356
  YS02001882           JUNCTION        0.38          0.669        0.161
  YS02001884           JUNCTION        0.39          0.695        0.175
  YS02001887           JUNCTION        0.42          0.768        0.182
  YS02001890           JUNCTION        0.43          0.760        0.000
  YS02001895           JUNCTION        0.37          0.695        0.055
  YS02001898           JUNCTION        0.36          0.702        0.038
  YS02001901           JUNCTION        0.41          0.771        0.099
  YS02001904           JUNCTION        0.40          0.748        0.102
  YS02001907           JUNCTION        0.65          0.950        0.000
  YS02001910           JUNCTION        0.46          0.967        0.133
  YS02001915           JUNCTION        0.37          0.920        0.080
  YS02001918           JUNCTION        0.29          0.810        0.000
  YS02001920           JUNCTION        0.31          1.058        0.082
  YS02001923           JUNCTION        0.02          0.797        0.023
  YS02001926           JUNCTION        0.03          0.900        0.000
  YS02001929           JUNCTION        0.01          0.780        0.000
  YS02006553           JUNCTION        0.67          1.023        0.167
  YS02006556           JUNCTION        0.55          0.908        0.442
  YS02006558           JUNCTION        0.54          0.890        0.510
  YS02006561           JUNCTION        0.26          0.113        1.037
  YS02163301           JUNCTION        0.84          0.917        0.113
  YS02163601           JUNCTION        0.89          1.035        0.045
  YS02164001           JUNCTION        0.80          0.954        0.146
  
  
  *********************
  Node Flooding Summary
  *********************
  
  Flooding refers to all water that overflows a node, whether it ponds or not.
  --------------------------------------------------------------------------
                                                             Total   Maximum
                                 Maximum   Time of Max       Flood    Ponded
                        Hours       Rate    Occurrence      Volume     Depth
  Node                 Flooded       LPS   days hr:min    10^6 ltr    Meters
  --------------------------------------------------------------------------
  WS02006234              0.01      1.40      0  02:21       0.000     0.000
  WS02006235              0.01     27.02      0  02:02       0.000     0.000
  WS02006238              0.01     26.68      0  02:02       0.000     0.000
  WS02006239              0.01      9.95      0  02:02       0.000     0.000
  WS02006240              0.01      1.85      0  02:21       0.000     0.000
  WS02006242              0.01     43.21      0  02:00       0.000     0.000
  WS02006243              0.01      5.80      0  03:26       0.000     0.000
  WS02006245              0.01      5.23      0  03:26       0.000     0.000
  WS02006247              0.01      4.88      0  03:26       0.000     0.000
  WS02006248              0.02     47.15      0  02:02       0.001     0.000
  WS02006249              0.93    104.54      0  02:03       0.215     0.000
  WS02006252              0.01    245.63      0  00:00       0.000     0.000
  WS02006256              1.31    293.19      0  00:00       0.436     0.000
  YS02001580              0.01     10.49      0  02:04       0.000     0.000
  YS02001583              0.01     67.65      0  02:04       0.000     0.000
  YS02001586              0.40    324.80      0  02:15       0.231     0.000
  YS02001590              0.01      3.42      0  02:04       0.000     0.000
  YS02001596              0.01      0.31      0  02:21       0.000     0.000
  YS02001600              0.01      2.33      0  02:04       0.000     0.000
  YS02001601              0.58    998.43      0  02:14       0.999     0.000
  YS02001602              0.47     61.99      0  02:15       0.096     0.000
  YS02001605              0.01      0.79      0  02:21       0.000     0.000
  YS02001607              0.01      0.48      0  02:21       0.000     0.000
  YS02001610              0.41    568.50      0  02:15       0.445     0.000
  YS02001616              0.01     19.57      0  02:21       0.000     0.000
  YS02001625              0.39   1202.84      0  02:14       0.880     0.000
  YS02001629              0.07     58.28      0  02:10       0.008     0.000
  YS02001644              0.15    643.17      0  02:13       0.193     0.000
  YS02001779              0.12    272.91      0  02:13       0.064     0.000
  YS02001890              0.12    155.30      0  02:13       0.033     0.000
  YS02001907              0.24   1357.38      0  02:13       0.646     0.000
  YS02001918              0.01     69.86      0  02:09       0.000     0.000
  YS02001926              0.01    163.96      0  02:09       0.000     0.000
  YS02001929              0.01    278.81      0  02:09       0.001     0.000
  
  
  **********************
  Storage Volume Summary
  **********************
  
  ------------------------------------------------------------------------------------------------
                         Average    Avg   Evap  Exfil     Maximum    Max    Time of Max    Maximum
                          Volume   Pcnt   Pcnt   Pcnt      Volume   Pcnt     Occurrence    Outflow
  Storage Unit           1000 m³   Full   Loss   Loss     1000 m³   Full    days hr:min        LPS
  ------------------------------------------------------------------------------------------------
  CC-storage               2.444   38.1    0.0    0.0       4.754   74.2       0  02:34    1783.53
  JK-storage               0.162   55.5    0.0    0.0       0.213   73.0       0  02:11    2300.00
  XR-storage               0.939   65.2    0.0    0.0       1.111   77.2       0  08:00     380.00
  
  
  ***********************
  Outfall Loading Summary
  ***********************
  
  -----------------------------------------------------------
                         Flow       Avg       Max       Total
                         Freq      Flow      Flow      Volume
  Outfall Node           Pcnt       LPS       LPS    10^6 ltr
  -----------------------------------------------------------
  CC-1                  33.17    683.00    683.00       3.929
  CC-2                  30.78    683.00    683.00       3.672
  JK-1                  14.78   1000.00   1000.00       2.149
  JK-2                   0.23   1000.00   1000.00       0.048
  WSC                   99.93    390.17    747.39       9.361
  -----------------------------------------------------------
  System                35.78   3756.17   3366.23      19.158
  
  
  ********************
  Link Flow Summary
  ********************
  
  -----------------------------------------------------------------------------
                                 Maximum  Time of Max   Maximum    Max/    Max/
                                  |Flow|   Occurrence   |Veloc|    Full    Full
  Link                 Type          LPS  days hr:min     m/sec    Flow   Depth
  -----------------------------------------------------------------------------
  1                    CONDUIT    747.39     0  02:30      3.07    0.26    0.35
  WS02001211WS02001212 CONDUIT    202.35     0  03:47      0.54    0.15    0.51
  WS02001212WS02001213 CONDUIT    204.46     0  03:48      1.04    0.32    0.36
  WS02001213WS02003059 CONDUIT    209.52     0  03:48      0.47    0.35    0.67
  WS02003059WS02003060 CONDUIT    216.67     0  03:49      0.67    0.14    0.58
  WS02003060WS02003069 CONDUIT    746.00     0  02:29      1.77    0.29    0.40
  WS02003066WSF200     CONDUIT    533.59     0  02:23      2.74    0.09    0.23
  WS02003067WS02003066 CONDUIT    533.58     0  02:23      1.20    0.17    0.42
  WS02003069WS02003072 CONDUIT    745.93     0  02:29      1.51    0.36    0.45
  WS02003072WS02003073 CONDUIT    745.69     0  02:29      1.59    1.61    0.43
  WS02004138WS02004139 CONDUIT    190.84     0  00:29      2.17    0.04    0.33
  WS02004139WS02001211 CONDUIT    192.93     0  03:23      0.54    0.24    0.47
  WS02004401WS02004402 CONDUIT    540.58     0  02:17      0.97    0.65    0.86
  WS02004402WS02004403 CONDUIT    540.14     0  02:17      0.97    0.78    0.88
  WS02004403WS02004404 CONDUIT    538.21     0  02:17      0.92    0.39    0.93
  WS02004404WS02004405 CONDUIT    538.66     0  02:17      1.08    5.28    0.96
  WS02004405WS02004406 CONDUIT    539.73     0  02:17      0.99    1.06    0.95
  WS02004406WS02004407 CONDUIT    536.21     0  02:18      1.04    0.24    0.63
  WS02004407WS02004409 CONDUIT    535.50     0  02:21      1.53    0.19    0.48
  WS02004409WS02004410 CONDUIT    534.68     0  02:22      0.99    0.69    0.67
  WS02004410WS02004411 CONDUIT    534.44     0  02:22      0.94    0.73    0.68
  WS02004411WS02004412 CONDUIT    534.04     0  02:22      0.92    0.76    0.69
  WS02004412WS02004413 CONDUIT    533.65     0  02:22      0.82    0.36    0.78
  WS02004413WS02003067 CONDUIT    533.51     0  02:22      1.11    0.23    0.59
  WS02006109WS02006110 CONDUIT    593.51     0  02:21      1.18    1.14    1.00
  WS02006110WS02006113 CONDUIT    581.21     0  02:16      1.38    0.53    0.79
  WS02006111WS02006112 CONDUIT    545.65     0  02:16      1.82    0.26    0.67
  WS02006112WS02006115 CONDUIT    550.09     0  02:44      0.80    0.32    0.87
  WS02006113WS02006111 CONDUIT    565.32     0  02:16      2.47    0.68    0.47
  WS02006115WS02006116 CONDUIT    542.95     0  02:17      0.97    0.70    0.76
  WS02006116WS02004401 CONDUIT    542.84     0  02:17      0.98    0.75    0.84
  WS02006228WS02006109 CONDUIT    586.88     0  02:21      1.17    2.56    1.00
  WS02006229WS02006228 CONDUIT    578.41     0  02:21      1.15    1.92    1.00
  WS02006230WS02006229 CONDUIT    574.36     0  02:21      1.49   12.78    1.00
  WS02006231WS02006230 CONDUIT    618.24     0  03:26      1.68    9.38    1.00
  WS02006232WS02006231 CONDUIT    598.55     0  02:21      1.58    1.25    1.00
  WS02006234WS02006232 CONDUIT    595.92     0  02:21      1.55    1.21    1.00
  WS02006235WS02006234 CONDUIT    590.04     0  02:21      1.53    6.23    1.00
  WS02006238WS02006235 CONDUIT    464.06     0  03:25      1.56    1.04    1.00
  WS02006239WS02006238 CONDUIT    428.95     0  03:25      1.11    1.37    1.00
  WS02006240WS02006239 CONDUIT    427.81     0  03:25      1.24    1.35    1.00
  WS02006242WS02006240 CONDUIT    425.15     0  03:25      1.12    1.69    1.00
  WS02006243WS02006242 CONDUIT    427.80     0  03:25      1.39    0.91    1.00
  WS02006245WS02006243 CONDUIT    429.36     0  03:25      1.45    1.27    1.00
  WS02006247WS02006245 CONDUIT    430.59     0  03:25      1.44    3.41    1.00
  WS02006248WS02006247 CONDUIT    431.14     0  03:25      1.45    0.94    1.00
  WS02006249WS02006248 CONDUIT    432.58     0  03:25      1.37    2.37    1.00
  WS02006251WS02006249 CONDUIT    458.97     0  00:00      1.99    1.32    1.00
  WS02006252WS02006251 CONDUIT    413.66     0  02:03     25.11    1.52    1.00
  WS02006256WS02006235 CONDUIT    289.21     0  01:48      4.23    3.06    1.00
  WSF200WS02003060     CONDUIT    533.95     0  02:23      1.75    0.12    0.32
  YS02001580YS02001583 CONDUIT     78.84     0  02:03      0.57    0.31    1.00
  YS02001583YS02001586 CONDUIT    138.57     0  02:03      0.57    0.21    1.00
  YS02001586YS02001590 CONDUIT    318.76     0  02:16      1.26    0.56    1.00
  YS02001590YS02001593 CONDUIT    318.31     0  02:16      1.13    2.00    1.00
  YS02001593YS02001596 CONDUIT    317.98     0  02:20      1.74    0.50    1.00
  YS02001596YS02001600 CONDUIT    319.72     0  02:21      1.24    0.62    1.00
  YS02001600YS02001601 CONDUIT    319.08     0  02:21      1.13    0.55    1.00
  YS02001601YS02001602 CONDUIT    500.61     0  02:03      1.77    1.81    1.00
  YS02001602YS02001605 CONDUIT    501.04     0  02:03      1.77   10.60    1.00
  YS02001605YS02001607 CONDUIT    500.33     0  02:03      1.77    2.74    1.00
  YS02001607YS02001610 CONDUIT    497.12     0  02:02      0.63    0.47    1.00
  YS02001610YS02001613 CONDUIT    498.04     0  02:02      0.63    0.57    1.00
  YS02001613YS02001616 CONDUIT    498.43     0  02:02      0.64    0.43    1.00
  YS02001616YS02001619 CONDUIT    494.49     0  02:03      0.66    0.86    1.00
  YS02001619YS02001622 CONDUIT    914.25     0  02:06      1.17    1.35    1.00
  YS02001622YS02001625 CONDUIT    913.28     0  02:06      1.16    0.49    1.00
  YS02001625YS02001629 CONDUIT    913.88     0  02:06      1.16    0.43    1.00
  YS02001629YS02163301 CONDUIT    913.99     0  02:06      1.16    1.13    1.00
  YS02001633YS02163601 CONDUIT   1305.24     0  02:06      1.66    1.37    1.00
  YS02001641YS02001644 CONDUIT   1306.89     0  02:06      1.66    4.22    1.00
  YS02001644YS02001647 CONDUIT   1642.28     0  02:06      2.14    0.96    1.00
  YS02001647YS02001649 CONDUIT   1651.56     0  02:06      2.27    0.87    1.00
  YS02001649YS02001757 CONDUIT   1805.37     0  02:05      2.34    1.10    1.00
  YS02001652YS02001649 CONDUIT    756.33     0  02:13      0.96    0.37    1.00
  YS02001655YS02001652 CONDUIT    755.20     0  02:13      1.26    0.37    1.00
  YS02001658YS02001655 CONDUIT    754.64     0  02:14      1.85    0.32    1.00
  YS02001661YS02001658 CONDUIT    753.72     0  02:14      2.20    0.30    1.00
  YS02001664YS02001661 CONDUIT    871.17     0  02:12      2.13    0.27    0.74
  YS02001745YS02001748 CONDUIT    490.54     0  02:09      2.00    0.19    0.88
  YS02001748YS02001751 CONDUIT    439.09     0  02:13      1.58    0.22    1.00
  YS02001751YS02001754 CONDUIT    439.44     0  02:13      1.38    0.21    1.00
  YS02001754YS02001757 CONDUIT    439.68     0  02:13      0.56    0.18    1.00
  YS02001757CaochengTiaoxuchi CONDUIT   3033.93     0  02:12      3.86    1.31    1.00
  YS02001759YS02001757 CONDUIT   1244.03     0  02:12      1.58    0.88    1.00
  YS02001762YS02001759 CONDUIT    681.91     0  02:11      0.87    0.79    1.00
  YS02001765YS02001762 CONDUIT    680.37     0  02:11      0.87    0.64    1.00
  YS02001767YS02001765 CONDUIT    680.93     0  02:11      0.87    0.86    1.00
  YS02001770YS02001767 CONDUIT    680.73     0  02:11      0.87    2.70    1.00
  YS02001774YS02001770 CONDUIT    286.00     0  02:07      0.36    0.18    1.00
  YS02001779YS02001774 CONDUIT    289.58     0  02:07      0.37    0.15    1.00
  YS02001783YS02001784 CONDUIT   1159.41     0  02:12      2.31    1.60    1.00
  YS02001784YS02001785 CONDUIT   1160.32     0  02:13      2.31    2.70    1.00
  YS02001786YS02001788 CONDUIT   1160.46     0  02:13      2.47    2.24    0.89
  YS02001788YS02001790 CONDUIT   1170.04     0  02:12      2.71    0.86    0.84
  YS02001790YS02001791 CONDUIT   1284.42     0  02:10      3.44    1.40    0.70
  YS02001791YS02001793 CONDUIT   1248.59     0  02:16      6.55    0.54    0.44
  YS02001793JiankangQianchi CONDUIT   1213.69     0  02:20      2.42    0.10    0.65
  YS02001882YS02001884 CONDUIT     32.18     0  02:06      0.13    0.04    1.00
  YS02001884YS02001887 CONDUIT     65.17     0  02:06      0.10    0.09    1.00
  YS02001887YS02001890 CONDUIT    666.00     0  02:13      0.85    1.14    1.00
  YS02001890YS02001895 CONDUIT    516.71     0  02:15      0.66    0.24    1.00
  YS02001895YS02001898 CONDUIT    516.93     0  02:15      0.66    0.90    1.00
  YS02001898YS02001901 CONDUIT    517.04     0  02:15      0.66    0.33    1.00
  YS02001901YS02001904 CONDUIT    516.75     0  02:16      0.66    0.80    1.00
  YS02001904YS02001907 CONDUIT    517.07     0  02:15      0.66    0.18    1.00
  YS02001907YS02006553 CONDUIT    794.22     0  02:25      0.88    0.93    1.00
  YS02001910YS02001907 CONDUIT   1147.37     0  02:13      1.46    0.65    1.00
  YS02001915YS02001910 CONDUIT   1147.51     0  02:13      1.46    0.57    1.00
  YS02001918YS02001915 CONDUIT    456.70     0  02:10      0.58    0.25    1.00
  YS02001920YS02001918 CONDUIT    455.16     0  02:10      0.64    0.44    1.00
  YS02001923YS02001920 CONDUIT    451.24     0  02:10      0.71    0.20    1.00
  YS02001926YS02001923 CONDUIT    415.88     0  02:13      0.97    0.59    1.00
  YS02001929YS02001926 CONDUIT    411.99     0  02:13      1.12    0.20    1.00
  YS02006553YS02006556 CONDUIT    794.78     0  02:25      1.01    0.68    1.00
  YS02006556YS02006558 CONDUIT    797.79     0  02:25      1.02    0.63    1.00
  YS02006558YS02006561 CONDUIT   1159.36     0  02:13      4.10    2.56    1.00
  YS02006561YS02001783 CONDUIT   1159.15     0  02:13      2.31    0.60    1.00
  YS02163301YS02001633 CONDUIT    914.98     0  02:06      1.16    0.86    1.00
  YS02163601YS02164001 CONDUIT   1306.45     0  02:06      1.66    1.16    1.00
  YS02164001YS02001641 CONDUIT   1305.60     0  02:06      1.66    1.78    1.00
  CC-R1                PUMP       683.00     0  00:00              1.00
  CC-R2                PUMP       683.00     0  00:00              1.00
  CC-S1                PUMP       200.00     0  00:00              1.00
  CC-S2                PUMP       200.00     0  00:00              1.00
  JK-R1                PUMP      1000.00     0  00:00              1.00
  JK-R2                PUMP      1000.00     0  00:00              1.00
  JK-S                 PUMP       300.00     0  00:00              1.00
  XR-1                 PUMP        95.00     0  00:00              1.00
  XR-2                 PUMP        95.00     0  00:00              1.00
  XR-3                 PUMP        95.00     0  00:00              1.00
  XR-4                 PUMP        95.00     0  00:00              1.00
  
  
  ***************************
  Flow Classification Summary
  ***************************
  
  -------------------------------------------------------------------------------------
                      Adjusted    ---------- Fraction of Time in Flow Class ---------- 
                       /Actual         Up    Down  Sub   Sup   Up    Down  Norm  Inlet 
  Conduit               Length    Dry  Dry   Dry   Crit  Crit  Crit  Crit  Ltd   Ctrl  
  -------------------------------------------------------------------------------------
  1                       1.00   0.00  0.00  0.00  0.00  1.00  0.00  0.00  0.20  0.00
  WS02001211WS02001212    1.00   0.00  0.02  0.00  0.98  0.00  0.00  0.00  0.00  0.00
  WS02001212WS02001213    1.00   0.02  0.00  0.00  0.22  0.00  0.76  0.00  0.00  0.00
  WS02001213WS02003059    1.00   0.00  0.01  0.00  0.99  0.00  0.00  0.00  0.00  0.00
  WS02003059WS02003060    1.00   0.00  0.00  0.00  1.00  0.00  0.00  0.00  0.03  0.00
  WS02003060WS02003069    1.00   0.00  0.00  0.00  0.98  0.02  0.00  0.00  0.65  0.00
  WS02003066WSF200        1.00   0.13  0.00  0.00  0.00  0.87  0.00  0.00  0.74  0.00
  WS02003067WS02003066    1.00   0.10  0.02  0.00  0.88  0.00  0.00  0.00  0.00  0.00
  WS02003069WS02003072    1.00   0.00  0.00  0.00  1.00  0.00  0.00  0.00  0.75  0.00
  WS02003072WS02003073    1.00   0.00  0.00  0.00  0.00  0.00  0.00  1.00  0.00  0.00
  WS02004138WS02004139    1.00   0.00  0.00  0.00  0.97  0.01  0.00  0.02  0.98  0.00
  WS02004139WS02001211    1.00   0.00  0.00  0.00  0.99  0.00  0.00  0.00  0.00  0.00
  WS02004401WS02004402    1.00   0.02  0.00  0.00  0.98  0.00  0.00  0.00  0.00  0.00
  WS02004402WS02004403    1.00   0.02  0.00  0.00  0.97  0.00  0.00  0.00  0.00  0.00
  WS02004403WS02004404    1.00   0.00  0.03  0.00  0.97  0.00  0.00  0.00  0.00  0.00
  WS02004404WS02004405    1.00   0.00  0.00  0.00  1.00  0.00  0.00  0.00  0.00  0.00
  WS02004405WS02004406    1.00   0.00  0.00  0.00  1.00  0.00  0.00  0.00  0.00  0.00
  WS02004406WS02004407    1.00   0.00  0.05  0.00  0.95  0.00  0.00  0.00  0.00  0.00
  WS02004407WS02004409    1.00   0.05  0.00  0.00  0.94  0.01  0.00  0.00  0.94  0.00
  WS02004409WS02004410    1.00   0.05  0.00  0.00  0.95  0.00  0.00  0.00  0.03  0.00
  WS02004410WS02004411    1.00   0.05  0.00  0.00  0.95  0.00  0.00  0.00  0.01  0.00
  WS02004411WS02004412    1.00   0.05  0.00  0.00  0.95  0.00  0.00  0.00  0.00  0.00
  WS02004412WS02004413    1.00   0.05  0.00  0.00  0.94  0.00  0.00  0.00  0.01  0.00
  WS02004413WS02003067    1.00   0.06  0.04  0.00  0.00  0.00  0.90  0.00  0.00  0.00
  WS02006109WS02006110    1.00   0.00  0.01  0.00  0.98  0.00  0.01  0.00  0.00  0.00
  WS02006110WS02006113    1.00   0.01  0.01  0.00  0.98  0.00  0.00  0.00  0.00  0.00
  WS02006111WS02006112    1.00   0.02  0.00  0.00  0.98  0.00  0.00  0.00  0.98  0.00
  WS02006112WS02006115    1.00   0.02  0.00  0.00  0.97  0.00  0.00  0.00  0.00  0.00
  WS02006113WS02006111    1.00   0.02  0.00  0.00  0.00  0.98  0.00  0.00  0.09  0.00
  WS02006115WS02006116    1.00   0.02  0.00  0.00  0.97  0.00  0.00  0.01  0.00  0.00
  WS02006116WS02004401    1.00   0.02  0.00  0.00  0.98  0.00  0.00  0.00  0.00  0.00
  WS02006228WS02006109    1.00   0.00  0.00  0.00  1.00  0.00  0.00  0.00  0.00  0.00
  WS02006229WS02006228    1.00   0.00  0.00  0.00  0.99  0.00  0.00  0.01  0.00  0.00
  WS02006230WS02006229    1.00   0.00  0.00  0.00  0.99  0.00  0.00  0.01  0.02  0.00
  WS02006231WS02006230    1.00   0.00  0.00  0.00  0.21  0.00  0.79  0.00  0.00  0.00
  WS02006232WS02006231    1.00   0.00  0.00  0.00  0.99  0.00  0.01  0.00  0.00  0.00
  WS02006234WS02006232    1.00   0.00  0.00  0.00  1.00  0.00  0.00  0.00  0.30  0.00
  WS02006235WS02006234    1.00   0.00  0.00  0.00  0.64  0.00  0.36  0.00  0.00  0.00
  WS02006238WS02006235    1.00   0.00  0.00  0.00  1.00  0.00  0.00  0.00  0.00  0.00
  WS02006239WS02006238    1.00   0.00  0.00  0.00  1.00  0.00  0.00  0.00  0.44  0.00
  WS02006240WS02006239    1.00   0.00  0.00  0.00  0.46  0.00  0.00  0.54  0.02  0.00
  WS02006242WS02006240    1.00   0.00  0.00  0.00  1.00  0.00  0.00  0.00  0.00  0.00
  WS02006243WS02006242    1.00   0.00  0.00  0.00  0.99  0.00  0.00  0.01  0.71  0.00
  WS02006245WS02006243    1.00   0.00  0.00  0.00  0.50  0.00  0.00  0.50  0.01  0.00
  WS02006247WS02006245    1.00   0.00  0.00  0.00  0.99  0.00  0.00  0.01  0.00  0.00
  WS02006248WS02006247    1.00   0.00  0.00  0.00  0.99  0.00  0.00  0.01  0.26  0.00
  WS02006249WS02006248    1.00   0.00  0.00  0.00  0.31  0.00  0.69  0.00  0.00  0.00
  WS02006251WS02006249    1.00   0.00  0.00  0.00  0.99  0.01  0.00  0.00  0.72  0.00
  WS02006252WS02006251    1.00   0.00  0.74  0.00  0.12  0.00  0.14  0.00  0.00  0.00
  WS02006256WS02006235    1.00   0.00  0.00  0.00  0.99  0.01  0.00  0.00  0.00  0.00
  WSF200WS02003060        1.00   0.00  0.13  0.00  0.68  0.20  0.00  0.00  0.66  0.00
  YS02001580YS02001583    1.00   0.25  0.56  0.00  0.18  0.00  0.00  0.00  0.66  0.00
  YS02001583YS02001586    1.00   0.48  0.28  0.00  0.23  0.00  0.00  0.00  0.66  0.00
  YS02001586YS02001590    1.00   0.13  0.00  0.00  0.41  0.04  0.00  0.43  0.35  0.00
  YS02001590YS02001593    1.00   0.13  0.01  0.00  0.10  0.00  0.76  0.00  0.00  0.00
  YS02001593YS02001596    1.00   0.13  0.00  0.00  0.12  0.01  0.00  0.73  0.02  0.00
  YS02001596YS02001600    1.00   0.13  0.00  0.00  0.19  0.01  0.00  0.66  0.05  0.00
  YS02001600YS02001601    1.00   0.13  0.01  0.00  0.86  0.00  0.00  0.00  0.61  0.00
  YS02001601YS02001602    1.00   0.13  0.01  0.00  0.87  0.00  0.00  0.00  0.00  0.00
  YS02001602YS02001605    1.00   0.13  0.00  0.00  0.87  0.00  0.00  0.00  0.00  0.00
  YS02001605YS02001607    1.00   0.14  0.00  0.00  0.86  0.00  0.00  0.00  0.00  0.00
  YS02001607YS02001610    1.00   0.13  0.01  0.00  0.86  0.00  0.00  0.00  0.01  0.00
  YS02001610YS02001613    1.00   0.13  0.00  0.00  0.87  0.00  0.00  0.00  0.00  0.00
  YS02001613YS02001616    1.00   0.13  0.00  0.00  0.87  0.00  0.00  0.00  0.00  0.00
  YS02001616YS02001619    1.00   0.13  0.00  0.00  0.87  0.00  0.00  0.00  0.00  0.00
  YS02001619YS02001622    1.00   0.13  0.00  0.00  0.87  0.00  0.00  0.00  0.34  0.00
  YS02001622YS02001625    1.00   0.13  0.00  0.00  0.87  0.00  0.00  0.00  0.04  0.00
  YS02001625YS02001629    1.00   0.13  0.05  0.00  0.15  0.00  0.67  0.00  0.00  0.00
  YS02001629YS02163301    1.00   0.15  0.01  0.00  0.84  0.00  0.00  0.00  0.00  0.00
  YS02001633YS02163601    1.00   0.00  0.01  0.00  0.99  0.00  0.00  0.00  0.15  0.00
  YS02001641YS02001644    1.00   0.00  0.01  0.00  0.99  0.00  0.00  0.00  0.00  0.00
  YS02001644YS02001647    1.00   0.00  0.17  0.00  0.83  0.00  0.00  0.00  0.00  0.00
  YS02001647YS02001649    1.00   0.00  0.17  0.00  0.56  0.27  0.00  0.00  0.58  0.00
  YS02001649YS02001757    1.00   0.00  0.00  0.00  0.71  0.29  0.00  0.00  0.51  0.00
  YS02001652YS02001649    1.00   0.00  0.00  0.00  0.97  0.03  0.00  0.00  0.76  0.00
  YS02001655YS02001652    1.00   0.00  0.00  0.00  0.17  0.01  0.00  0.81  0.04  0.00
  YS02001658YS02001655    1.00   0.00  0.14  0.00  0.67  0.19  0.00  0.00  0.70  0.00
  YS02001661YS02001658    1.00   0.14  0.00  0.00  0.53  0.33  0.00  0.00  0.72  0.00
  YS02001664YS02001661    1.00   0.13  0.00  0.00  0.77  0.10  0.00  0.00  0.86  0.00
  YS02001745YS02001748    1.00   0.00  0.00  0.00  0.09  0.00  0.00  0.91  0.04  0.00
  YS02001748YS02001751    1.00   0.00  0.00  0.00  0.83  0.17  0.00  0.00  0.76  0.00
  YS02001751YS02001754    1.00   0.00  0.00  0.00  0.15  0.00  0.00  0.85  0.02  0.00
  YS02001754YS02001757    1.00   0.00  0.00  0.00  1.00  0.00  0.00  0.00  0.84  0.00
  YS02001757CaochengTiaoxuchi    1.00   0.00  0.00  0.00  1.00  0.00  0.00  0.00  0.83  0.00
  YS02001759YS02001757    1.00   0.00  0.00  0.00  0.99  0.01  0.00  0.00  0.62  0.00
  YS02001762YS02001759    1.00   0.00  0.00  0.00  1.00  0.00  0.00  0.00  0.04  0.00
  YS02001765YS02001762    1.00   0.00  0.00  0.00  1.00  0.00  0.00  0.00  0.73  0.00
  YS02001767YS02001765    1.00   0.00  0.00  0.00  1.00  0.00  0.00  0.00  0.00  0.00
  YS02001770YS02001767    1.00   0.00  0.00  0.00  1.00  0.00  0.00  0.00  0.00  0.00
  YS02001774YS02001770    1.00   0.00  0.13  0.00  0.61  0.00  0.26  0.00  0.03  0.00
  YS02001779YS02001774    1.00   0.00  0.00  0.00  1.00  0.00  0.00  0.00  0.77  0.00
  YS02001783YS02001784    1.00   0.00  0.18  0.00  0.82  0.00  0.00  0.00  0.57  0.00
  YS02001784YS02001785    1.00   0.00  0.00  0.00  1.00  0.00  0.00  0.00  0.16  0.00
  YS02001786YS02001788    1.00   0.00  0.00  0.00  0.79  0.21  0.00  0.00  0.00  0.00
  YS02001788YS02001790    1.00   0.00  0.00  0.00  0.20  0.80  0.00  0.00  0.81  0.00
  YS02001790YS02001791    1.00   0.00  0.00  0.00  0.01  0.99  0.00  0.00  0.17  0.00
  YS02001791YS02001793    1.00   0.00  0.00  0.00  0.00  1.00  0.00  0.00  0.01  0.00
  YS02001793JiankangQianchi    1.00   0.00  0.00  0.00  0.99  0.01  0.00  0.00  0.96  0.00
  YS02001882YS02001884    1.00   0.15  0.01  0.00  0.84  0.00  0.00  0.00  0.00  0.00
  YS02001884YS02001887    1.00   0.06  0.05  0.00  0.89  0.00  0.00  0.00  0.00  0.00
  YS02001887YS02001890    1.00   0.00  0.00  0.00  0.97  0.00  0.03  0.00  0.00  0.00
  YS02001890YS02001895    1.00   0.00  0.16  0.00  0.84  0.00  0.00  0.00  0.00  0.00
  YS02001895YS02001898    1.00   0.16  0.00  0.00  0.82  0.00  0.02  0.00  0.00  0.00
  YS02001898YS02001901    1.00   0.16  0.00  0.00  0.84  0.00  0.00  0.00  0.01  0.00
  YS02001901YS02001904    1.00   0.16  0.00  0.00  0.84  0.00  0.00  0.00  0.00  0.00
  YS02001904YS02001907    1.00   0.00  0.16  0.00  0.84  0.00  0.00  0.00  0.00  0.00
  YS02001907YS02006553    1.00   0.00  0.02  0.00  0.98  0.00  0.00  0.00  0.00  0.00
  YS02001910YS02001907    1.00   0.00  0.00  0.00  0.97  0.00  0.00  0.03  0.12  0.00
  YS02001915YS02001910    1.00   0.00  0.00  0.00  0.97  0.03  0.00  0.00  0.15  0.00
  YS02001918YS02001915    1.00   0.00  0.01  0.00  0.98  0.02  0.00  0.00  0.76  0.00
  YS02001920YS02001918    1.00   0.00  0.01  0.00  0.99  0.00  0.00  0.00  0.00  0.00
  YS02001923YS02001920    1.00   0.00  0.00  0.00  1.00  0.00  0.00  0.00  0.94  0.00
  YS02001926YS02001923    1.00   0.00  0.07  0.00  0.05  0.00  0.88  0.00  0.00  0.00
  YS02001929YS02001926    1.00   0.00  0.13  0.00  0.87  0.00  0.00  0.00  0.83  0.00
  YS02006553YS02006556    1.00   0.01  0.00  0.00  0.99  0.00  0.00  0.00  0.03  0.00
  YS02006556YS02006558    1.00   0.00  0.00  0.00  1.00  0.00  0.00  0.00  0.00  0.00
  YS02006558YS02006561    1.00   0.18  0.00  0.00  0.04  0.78  0.00  0.00  0.18  0.00
  YS02006561YS02001783    1.00   0.18  0.00  0.00  0.08  0.75  0.00  0.00  0.70  0.00
  YS02163301YS02001633    1.00   0.00  0.15  0.00  0.85  0.00  0.00  0.00  0.00  0.00
  YS02163601YS02164001    1.00   0.00  0.08  0.00  0.92  0.00  0.00  0.00  0.00  0.00
  YS02164001YS02001641    1.00   0.01  0.07  0.00  0.92  0.00  0.00  0.00  0.05  0.00
  
  
  *************************
  Conduit Surcharge Summary
  *************************
  
  ----------------------------------------------------------------------------
                                                           Hours        Hours 
                         --------- Hours Full --------   Above Full   Capacity
  Conduit                Both Ends  Upstream  Dnstream   Normal Flow   Limited
  ----------------------------------------------------------------------------
  WS02003072WS02003073        0.01      0.01      0.01      1.71         0.01
  WS02004404WS02004405        0.01      0.01      0.01      1.98         0.01
  WS02004405WS02004406        0.01      0.01      0.01      0.72         0.01
  WS02006109WS02006110        0.64      0.64      1.58      0.83         0.01
  WS02006110WS02006113        0.01      0.01      1.56      0.01         0.01
  WS02006111WS02006112        0.01      0.01      1.68      0.01         0.01
  WS02006112WS02006115        0.01      0.01      0.84      0.01         0.01
  WS02006228WS02006109        1.55      1.58      1.55      1.79         1.54
  WS02006229WS02006228        1.54      1.55      1.54      1.71         1.53
  WS02006230WS02006229        1.65      1.68      1.65      2.79         1.65
  WS02006231WS02006230        0.64      0.64      0.95      2.31         0.01
  WS02006232WS02006231        0.86      0.86      1.58      0.95         0.01
  WS02006234WS02006232        1.46      1.46      1.58      0.94         0.92
  WS02006235WS02006234        1.24      1.25      1.47      2.17         0.03
  WS02006238WS02006235        1.49      1.49      1.58      0.01         0.01
  WS02006239WS02006238        1.54      1.56      1.54      1.61         1.31
  WS02006240WS02006239        1.51      1.55      1.51      1.62         1.22
  WS02006242WS02006240        1.54      1.54      1.60      1.65         0.01
  WS02006243WS02006242        1.55      1.55      1.59      0.01         0.07
  WS02006245WS02006243        1.54      1.55      1.54      0.87         0.86
  WS02006247WS02006245        1.54      1.56      1.54      1.86         1.52
  WS02006248WS02006247        1.54      1.54      1.55      0.01         0.08
  WS02006249WS02006248        1.53      1.53      1.55      1.85         0.01
  WS02006251WS02006249        1.55      1.55      1.55      1.64         1.44
  WS02006252WS02006251        1.72      1.72      1.72      1.72         0.01
  WS02006256WS02006235        2.17      2.23      4.40      1.31         0.01
  YS02001580YS02001583        0.53      0.53      0.57      0.01         0.01
  YS02001583YS02001586        0.53      0.53      0.64      0.01         0.01
  YS02001586YS02001590        0.65      0.65      0.72      0.01         0.01
  YS02001590YS02001593        0.73      0.73      0.74      0.75         0.01
  YS02001593YS02001596        0.73      0.73      0.84      0.01         0.01
  YS02001596YS02001600        0.89      0.89      1.00      0.01         0.01
  YS02001600YS02001601        1.07      1.07      1.37      0.01         0.01
  YS02001601YS02001602        1.26      1.26      1.40      1.00         0.01
  YS02001602YS02001605        1.20      1.20      1.26      2.19         0.01
  YS02001605YS02001607        1.16      1.20      1.16      1.33         1.16
  YS02001607YS02001610        0.71      0.71      0.73      0.01         0.01
  YS02001610YS02001613        0.70      0.70      0.73      0.01         0.01
  YS02001613YS02001616        0.66      0.66      0.70      0.01         0.01
  YS02001616YS02001619        0.65      0.65      0.66      0.01         0.01
  YS02001619YS02001622        0.65      0.65      0.65      0.71         0.61
  YS02001622YS02001625        0.65      0.65      0.83      0.01         0.01
  YS02001625YS02001629        0.60      0.60      0.83      0.01         0.01
  YS02001629YS02163301        0.83      0.83      0.84      0.06         0.12
  YS02001633YS02163601        0.86      0.86      0.89      0.30         0.28
  YS02001641YS02001644        0.77      0.80      0.77      1.45         0.75
  YS02001644YS02001647        0.57      0.57      0.77      0.01         0.01
  YS02001647YS02001649        0.57      0.57      0.69      0.01         0.01
  YS02001649YS02001757        0.69      0.69      0.76      0.06         0.04
  YS02001652YS02001649        0.52      0.52      0.69      0.01         0.01
  YS02001655YS02001652        0.36      0.36      0.50      0.01         0.01
  YS02001658YS02001655        0.18      0.18      0.36      0.01         0.01
  YS02001661YS02001658        0.01      0.01      0.18      0.01         0.01
  YS02001664YS02001661        0.01      0.01      0.02      0.01         0.01
  YS02001745YS02001748        0.01      0.01      0.12      0.01         0.01
  YS02001748YS02001751        0.16      0.16      0.26      0.01         0.01
  YS02001751YS02001754        0.26      0.26      0.43      0.01         0.01
  YS02001754YS02001757        0.45      0.45      0.76      0.01         0.01
  YS02001757CaochengTiaoxuchi        0.76      0.76      1.35      0.27         0.27
  YS02001759YS02001757        0.66      0.66      0.76      0.01         0.01
  YS02001762YS02001759        0.63      0.63      0.66      0.01         0.01
  YS02001765YS02001762        0.59      0.59      0.63      0.01         0.01
  YS02001767YS02001765        0.56      0.56      0.59      0.01         0.02
  YS02001770YS02001767        0.55      0.55      0.56      0.36         0.35
  YS02001774YS02001770        0.53      0.53      0.61      0.01         0.01
  YS02001779YS02001774        0.41      0.41      0.61      0.01         0.01
  YS02001783YS02001784        0.40      0.43      0.40      0.58         0.40
  YS02001784YS02001785        0.30      0.40      0.30      0.82         0.30
  YS02001786YS02001788        0.01      0.30      0.01      0.70         0.01
  YS02001790YS02001791        0.01      0.01      0.01      0.39         0.01
  YS02001793JiankangQianchi        0.01      0.01      7.70      0.01         0.01
  YS02001882YS02001884        0.38      0.38      0.39      0.01         0.01
  YS02001884YS02001887        0.41      0.41      0.42      0.01         0.01
  YS02001887YS02001890        0.43      0.43      0.44      0.06         0.01
  YS02001890YS02001895        0.37      0.37      0.46      0.01         0.01
  YS02001895YS02001898        0.36      0.36      0.37      0.01         0.01
  YS02001898YS02001901        0.37      0.37      0.41      0.01         0.01
  YS02001901YS02001904        0.40      0.40      0.41      0.01         0.01
  YS02001904YS02001907        0.40      0.40      0.67      0.01         0.01
  YS02001907YS02006553        0.82      0.82      0.90      0.01         0.01
  YS02001910YS02001907        0.46      0.46      0.65      0.01         0.01
  YS02001915YS02001910        0.37      0.37      0.46      0.01         0.01
  YS02001918YS02001915        0.29      0.29      0.37      0.01         0.01
  YS02001920YS02001918        0.29      0.29      0.31      0.01         0.01
  YS02001923YS02001920        0.25      0.25      0.31      0.01         0.01
  YS02001926YS02001923        0.02      0.02      0.03      0.01         0.01
  YS02001929YS02001926        0.01      0.01      0.03      0.01         0.01
  YS02006553YS02006556        0.55      0.55      0.67      0.01         0.01
  YS02006556YS02006558        0.61      0.61      0.69      0.01         0.01
  YS02006558YS02006561        0.32      0.54      0.32      0.77         0.32
  YS02006561YS02001783        0.26      0.26      0.43      0.01         0.01
  YS02163301YS02001633        0.84      0.84      0.88      0.01         0.01
  YS02163601YS02164001        0.80      0.80      0.89      0.07         0.01
  YS02164001YS02001641        0.80      0.80      0.80      0.64         0.56
  
  
  ***************
  Pumping Summary
  ***************
  
  ---------------------------------------------------------------------------------------------------------
                                                  Min       Avg       Max     Total     Power    % Time Off
                        Percent   Number of      Flow      Flow      Flow    Volume     Usage    Pump Curve
  Pump                 Utilized   Start-Ups       LPS       LPS       LPS  10^6 ltr     Kw-hr    Low   High
  ---------------------------------------------------------------------------------------------------------
  CC-R1                   19.97          15      0.00    683.00    683.00     3.928     72.83    0.0   23.3
  CC-R2                   18.66          15      0.00    683.00    683.00     3.671     68.09    0.0   25.0
  CC-S1                   23.93          15      0.00    200.00    200.00     1.378      7.85    0.0    0.0
  CC-S2                   21.50          15      0.00    200.00    200.00     1.239      7.02    0.0    0.0
  JK-R1                    7.45          13      0.00   1000.00   1000.00     2.146     25.84    0.0    0.0
  JK-R2                    0.16           1      0.00   1000.00   1000.00     0.047      0.36    0.0    0.0
  JK-S                    16.35          24      0.00    300.00    300.00     1.412     18.37    0.0    0.0
  XR-1                    97.91           2      0.00     95.00     95.00     2.679      9.60    0.0    0.0
  XR-2                    93.94           2      0.00     95.00     95.00     2.570      8.76    0.0    0.0
  XR-3                     0.00           1      0.00     95.00     95.00     0.000      0.00    0.0    0.0
  XR-4                     0.00           1      0.00     95.00     95.00     0.000      0.00    0.0    0.0
  

  Analysis begun on:  Wed Nov  5 16:32:29 2025
  Analysis ended on:  Wed Nov  5 16:32:31 2025
  Total elapsed time: 00:00:02