
  EPA STORM WATER MANAGEMENT MODEL - VERSION 5.2 (Build 5.2.4)
  PYSWMM TOOLKIT API - VERSION v1.0 (2023-11-27)
  ------------------------------------------------------------

  WARNING 04: minimum elevation drop used for Conduit WS02004404WS02004405
  WARNING 03: negative offset ignored for Link YS02001904YS02001907
  
  ****************
  Analysis Options
  ****************
  Flow Units ............... LPS
  Process Models:
    Rainfall/Runoff ........ YES
    RDII ................... NO
    Snowmelt ............... NO
    Groundwater ............ NO
    Flow Routing ........... YES
    Ponding Allowed ........ NO
    Water Quality .......... NO
  Infiltration Method ...... HORTON
  Flow Routing Method ...... DYNWAVE
  Surcharge Method ......... EXTRAN
  Starting Date ............ 08/28/2015 08:00:00
  Ending Date .............. 08/28/2015 16:00:00
  Antecedent Dry Days ...... 8.0
  Report Time Step ......... 00:01:00
  Wet Time Step ............ 00:01:00
  Dry Time Step ............ 00:01:00
  Routing Time Step ........ 30.00 sec
  Variable Time Step ....... YES
  Maximum Trials ........... 8
  Number of Threads ........ 4
  Head Tolerance ........... 0.001500 m
  
  
  **************************        Volume         Depth
  Runoff Quantity Continuity     hectare-m            mm
  **************************     ---------       -------
  Initial LID Storage ......         0.049         1.488
  Total Precipitation ......         2.012        60.646
  Evaporation Loss .........         0.000         0.000
  Infiltration Loss ........         0.076         2.278
  Surface Runoff ...........         1.487        44.820
  Final Storage ............         0.500        15.065
  Continuity Error (%) .....        -0.046
  
  
  **************************        Volume        Volume
  Flow Routing Continuity        hectare-m      10^6 ltr
  **************************     ---------     ---------
  Dry Weather Inflow .......         0.602         6.020
  Wet Weather Inflow .......         1.487        14.868
  Groundwater Inflow .......         0.000         0.000
  RDII Inflow ..............         0.000         0.000
  External Inflow ..........         0.105         1.045
  External Outflow .........         1.825        18.247
  Flooding Loss ............         0.342         3.415
  Evaporation Loss .........         0.000         0.000
  Exfiltration Loss ........         0.000         0.000
  Initial Stored Volume ....         0.303         3.031
  Final Stored Volume ......         0.336         3.358
  Continuity Error (%) .....        -0.223
  
  
  *************************
  Highest Continuity Errors
  *************************
  Node YS02001583 (-10.50%)
  Node YS02001884 (5.10%)
  Node YS02001774 (1.13%)
  
  
  ***************************
  Time-Step Critical Elements
  ***************************
  Link WS02004404WS02004405 (36.88%)
  Link WS02006238WS02006235 (18.16%)
  Link WS02006252WS02006251 (10.85%)
  Link YS02001791YS02001793 (9.88%)
  Link WS02003066WSF200 (6.49%)
  
  
  ********************************
  Highest Flow Instability Indexes
  ********************************
  Link WS02006113WS02006111 (28)
  Link WS02006252WS02006251 (25)
  Link WS02006238WS02006235 (19)
  Link WS02006111WS02006112 (18)
  Link WS02006110WS02006113 (15)
  
  
  *********************************
  Most Frequent Nonconverging Nodes
  *********************************
  Node CC-1 (13.72%)
  Node CC-2 (13.72%)
  Node JK-1 (13.72%)
  Node JK-2 (13.72%)
  Node WSC (13.72%)
  
  
  *************************
  Routing Time Step Summary
  *************************
  Minimum Time Step           :     0.00 sec
  Average Time Step           :     3.54 sec
  Maximum Time Step           :     7.04 sec
  % of Time in Steady State   :     0.00
  Average Iterations per Step :     3.31
  % of Steps Not Converging   :    13.72
  Time Step Frequencies       :
     30.000 - 13.228 sec      :     0.00 %
     13.228 -  5.833 sec      :    26.47 %
      5.833 -  2.572 sec      :    32.21 %
      2.572 -  1.134 sec      :    29.04 %
      1.134 -  0.500 sec      :    12.27 %
  
  
  ***************************
  Subcatchment Runoff Summary
  ***************************
  
  ------------------------------------------------------------------------------------------------------------------------------
                            Total      Total      Total      Total     Imperv       Perv      Total       Total     Peak  Runoff
                           Precip      Runon       Evap      Infil     Runoff     Runoff     Runoff      Runoff   Runoff   Coeff
  Subcatchment                 mm         mm         mm         mm         mm         mm         mm    10^6 ltr      LPS
  ------------------------------------------------------------------------------------------------------------------------------
  sub60                     60.65       0.00       0.00       1.37      40.26       4.25      44.51        0.58   396.03   0.734
  sub61                     60.65       0.00       0.00       2.10      40.23       6.33      46.56        0.85   574.83   0.768
  sub62                     60.65       0.00       0.00       0.93      42.88       2.89      45.77        1.25   782.00   0.755
  sub63                     60.65       0.00       0.00       3.82      34.46      10.57      45.03        1.02   636.34   0.743
  sub64                     60.65       0.00       0.00       1.84      39.23       5.25      44.48        1.07   633.63   0.733
  sub65                     60.65       0.00       0.00       1.69      42.34       4.79      47.13        1.30   737.50   0.777
  sub66                     60.65       0.00       0.00       4.43      33.31       9.52      42.83        2.00   933.65   0.706
  sub67                     60.65       0.00       0.00       0.93      43.97       2.98      46.95        0.87   615.41   0.774
  sub68                     60.65       0.00       0.00       1.61      38.83       4.86      43.69        1.20   782.13   0.720
  sub69                     60.65       0.00       0.00       1.46      40.77       5.75      46.52        1.72   958.54   0.767
  sub70                     60.65       0.00       0.00       4.85      32.66      12.03      44.69        1.29   540.29   0.737
  sub71                     60.65       0.00       0.00       0.86      38.96       2.61      41.57        1.09   644.15   0.685
  sub72                     60.65       0.00       0.00       0.82      42.08       2.43      44.51        0.61   328.46   0.734
  

  ***********************
  LID Performance Summary
  ***********************

  --------------------------------------------------------------------------------------------------------------------
                                         Total      Evap     Infil   Surface    Drain    Initial     Final  Continuity
                                        Inflow      Loss      Loss   Outflow   Outflow   Storage   Storage       Error
  Subcatchment      LID Control             mm        mm        mm        mm        mm        mm        mm           %
  --------------------------------------------------------------------------------------------------------------------
  sub60             GreenRoof            60.65      0.00      0.00      0.00      0.00      7.05     67.78       -0.12
  sub61             GreenRoof            60.65      0.00      0.00      0.00      0.00      7.05     67.78       -0.12
  sub62             GreenRoof            60.65      0.00      0.00      0.00      0.00      7.05     67.78       -0.12
  sub63             GreenRoof            60.65      0.00      0.00      0.00      0.00      7.05     67.78       -0.12
  sub64             GreenRoof            60.65      0.00      0.00      0.00      0.00      7.05     67.78       -0.12
  sub65             GreenRoof            60.65      0.00      0.00      0.00      0.00      7.05     67.78       -0.12
  sub66             GreenRoof            60.65      0.00      0.00      0.00      0.00      7.05     67.78       -0.12
  sub67             GreenRoof            60.65      0.00      0.00      0.00      0.00      7.05     67.78       -0.12
  sub68             GreenRoof            60.65      0.00      0.00      0.00      0.00      7.05     67.78       -0.12
  sub69             GreenRoof            60.65      0.00      0.00      0.00      0.00      7.05     67.78       -0.12
  sub70             GreenRoof            60.65      0.00      0.00      0.00      0.00      7.05     67.78       -0.12
  sub71             GreenRoof            60.65      0.00      0.00      0.00      0.00      7.05     67.78       -0.12
  sub72             GreenRoof            60.65      0.00      0.00      0.00      0.00      7.05     67.78       -0.12
  
  ******************
  Node Depth Summary
  ******************
  
  ---------------------------------------------------------------------------------
                                 Average  Maximum  Maximum  Time of Max    Reported
                                   Depth    Depth      HGL   Occurrence   Max Depth
  Node                 Type       Meters   Meters   Meters  days hr:min      Meters
  ---------------------------------------------------------------------------------
  WS02001211           JUNCTION     0.60     0.64     5.48     0  02:35        0.64
  WS02001212           JUNCTION     0.33     0.38     5.45     0  02:32        0.38
  WS02001213           JUNCTION     0.53     0.65     5.41     0  02:32        0.65
  WS02003059           JUNCTION     0.59     0.72     5.40     0  02:31        0.72
  WS02003060           JUNCTION     0.30     0.45     5.38     0  02:30        0.45
  WS02003066           JUNCTION     0.16     0.30     5.85     0  02:27        0.30
  WS02003067           JUNCTION     0.43     0.70     6.02     0  02:27        0.70
  WS02003069           JUNCTION     0.34     0.51     5.10     0  02:31        0.51
  WS02003072           JUNCTION     0.40     0.58     4.95     0  02:32        0.58
  WS02003073           JUNCTION     0.23     0.35     4.41     0  02:33        0.35
  WS02004138           JUNCTION     0.13     0.14     7.39     0  00:29        0.14
  WS02004139           JUNCTION     0.54     0.58     5.49     0  02:34        0.58
  WS02004401           JUNCTION     0.52     0.85     6.85     0  02:07        0.85
  WS02004402           JUNCTION     0.55     0.88     6.84     0  02:07        0.88
  WS02004403           JUNCTION     0.57     0.89     6.82     0  02:07        0.89
  WS02004404           JUNCTION     0.65     0.96     6.81     0  02:07        0.96
  WS02004405           JUNCTION     0.65     0.96     6.81     0  02:07        0.96
  WS02004406           JUNCTION     0.66     0.96     6.79     0  02:07        0.96
  WS02004407           JUNCTION     0.14     0.30     6.61     0  02:08        0.30
  WS02004409           JUNCTION     0.31     0.67     6.44     0  02:18        0.67
  WS02004410           JUNCTION     0.34     0.68     6.40     0  02:26        0.68
  WS02004411           JUNCTION     0.36     0.69     6.37     0  02:18        0.69
  WS02004412           JUNCTION     0.39     0.70     6.34     0  02:27        0.70
  WS02004413           JUNCTION     0.54     0.86     6.33     0  02:27        0.86
  WS02006109           JUNCTION     0.57     1.28     7.89     0  02:51        1.28
  WS02006110           JUNCTION     0.57     1.13     7.71     0  02:51        1.13
  WS02006111           JUNCTION     0.14     0.29     7.00     0  02:06        0.29
  WS02006112           JUNCTION     0.66     1.06     6.94     0  02:21        1.06
  WS02006113           JUNCTION     0.21     0.46     7.35     0  02:06        0.46
  WS02006115           JUNCTION     0.40     0.75     6.89     0  02:06        0.75
  WS02006116           JUNCTION     0.49     0.83     6.87     0  02:06        0.83
  WS02006228           JUNCTION     0.56     1.28     7.93     0  02:51        1.28
  WS02006229           JUNCTION     0.53     1.22     7.91     0  02:51        1.22
  WS02006230           JUNCTION     0.53     1.25     7.99     0  02:50        1.12
  WS02006231           JUNCTION     0.35     1.02     8.14     0  02:50        0.87
  WS02006232           JUNCTION     0.47     2.18     9.22     0  02:06        2.18
  WS02006234           JUNCTION     0.40     1.17     8.33     0  02:50        1.10
  WS02006235           JUNCTION     0.45     1.43     8.60     0  02:06        1.19
  WS02006238           JUNCTION     0.47     2.15     9.29     0  02:06        2.15
  WS02006239           JUNCTION     0.43     1.40     8.60     0  02:06        1.21
  WS02006240           JUNCTION     0.41     1.34     8.63     0  02:50        1.23
  WS02006242           JUNCTION     0.46     1.55     8.82     0  02:06        1.55
  WS02006243           JUNCTION     0.39     1.48     8.90     0  02:06        1.48
  WS02006245           JUNCTION     0.39     1.56     9.04     0  02:06        1.56
  WS02006247           JUNCTION     0.40     1.21     8.71     0  02:50        1.14
  WS02006248           JUNCTION     0.38     1.10     8.69     0  02:06        1.08
  WS02006249           JUNCTION     0.40     1.09     8.69     0  01:52        1.09
  WS02006251           JUNCTION     0.40     1.36     9.03     0  01:52        1.19
  WS02006252           JUNCTION     0.27     1.50     9.74     0  00:00        0.74
  WS02006256           JUNCTION     1.07     2.35     9.28     0  00:00        2.35
  WSF200               JUNCTION     0.13     0.31     5.54     0  02:21        0.31
  YS02001580           JUNCTION     0.12     1.05     9.59     0  01:46        0.77
  YS02001583           JUNCTION     0.15     1.14     9.64     0  01:46        1.01
  YS02001586           JUNCTION     0.25     1.13     9.30     0  01:45        1.13
  YS02001590           JUNCTION     0.35     1.40     9.26     0  01:44        1.40
  YS02001593           JUNCTION     0.29     1.46     9.32     0  01:44        1.28
  YS02001596           JUNCTION     0.40     1.80     9.22     0  02:06        1.80
  YS02001600           JUNCTION     0.48     1.87     9.00     0  01:44        1.87
  YS02001601           JUNCTION     0.67     2.06     8.90     0  01:44        2.06
  YS02001602           JUNCTION     0.57     1.87     8.77     0  01:46        1.87
  YS02001605           JUNCTION     0.53     1.78     8.68     0  01:46        1.78
  YS02001607           JUNCTION     0.50     1.67     8.52     0  01:46        1.66
  YS02001610           JUNCTION     0.54     1.68     8.48     0  01:46        1.68
  YS02001613           JUNCTION     0.50     1.70     8.54     0  02:06        1.70
  YS02001616           JUNCTION     0.44     1.61     8.52     0  01:46        1.60
  YS02001619           JUNCTION     0.41     1.61     8.54     0  01:46        1.61
  YS02001622           JUNCTION     0.40     1.62     8.52     0  01:46        1.62
  YS02001625           JUNCTION     0.66     1.78     8.38     0  01:46        1.78
  YS02001629           JUNCTION     0.54     1.85     8.40     0  01:46        1.85
  YS02001633           JUNCTION     0.61     2.08     8.53     0  01:47        2.05
  YS02001641           JUNCTION     0.58     1.97     8.40     0  01:47        1.94
  YS02001644           JUNCTION     0.57     1.92     8.35     0  01:49        1.92
  YS02001647           JUNCTION     0.35     1.78     8.39     0  01:49        1.72
  YS02001649           JUNCTION     0.40     2.05     8.44     0  02:06        2.05
  YS02001652           JUNCTION     0.29     1.91     8.50     0  01:50        1.76
  YS02001655           JUNCTION     0.21     1.86     8.71     0  01:49        1.54
  YS02001658           JUNCTION     0.15     1.83     8.98     0  01:49        1.29
  YS02001661           JUNCTION     0.16     1.55     8.95     0  01:50        1.07
  YS02001664           JUNCTION     0.07     0.66     8.59     0  01:50        0.42
  YS02001745           JUNCTION     0.07     1.00     8.51     0  01:49        0.98
  YS02001748           JUNCTION     0.14     2.01     9.09     0  01:49        1.36
  YS02001751           JUNCTION     0.18     1.93     8.81     0  01:49        1.50
  YS02001754           JUNCTION     0.25     1.93     8.54     0  01:49        1.71
  YS02001757           JUNCTION     0.41     2.21     8.47     0  02:06        2.21
  YS02001759           JUNCTION     0.36     2.21     8.57     0  02:06        2.21
  YS02001762           JUNCTION     0.35     2.07     8.47     0  01:49        1.93
  YS02001765           JUNCTION     0.33     2.05     8.50     0  01:49        1.90
  YS02001767           JUNCTION     0.32     2.03     8.52     0  01:48        1.87
  YS02001770           JUNCTION     0.33     1.95     8.44     0  01:48        1.89
  YS02001774           JUNCTION     0.40     2.05     8.47     0  01:48        1.96
  YS02001779           JUNCTION     0.23     1.68     8.37     0  01:48        1.68
  YS02001783           JUNCTION     0.28     1.66     7.80     0  01:48        1.21
  YS02001784           JUNCTION     0.29     1.37     7.44     0  01:48        1.11
  YS02001786           JUNCTION     0.25     1.05     7.08     0  01:48        0.87
  YS02001788           JUNCTION     0.18     0.62     6.60     0  01:50        0.62
  YS02001790           JUNCTION     0.21     0.72     6.37     0  01:51        0.72
  YS02001791           JUNCTION     0.13     0.44     5.91     0  01:51        0.43
  YS02001793           JUNCTION     0.07     0.29     5.12     0  01:55        0.28
  YS02001882           JUNCTION     0.35     1.83     8.55     0  01:47        1.63
  YS02001884           JUNCTION     0.44     1.93     8.54     0  01:47        1.73
  YS02001887           JUNCTION     0.51     1.96     8.50     0  01:47        1.82
  YS02001890           JUNCTION     0.54     1.81     8.32     0  01:47        1.81
  YS02001895           JUNCTION     0.32     1.75     8.50     0  01:47        1.56
  YS02001898           JUNCTION     0.33     1.77     8.51     0  01:47        1.57
  YS02001901           JUNCTION     0.44     1.87     8.48     0  01:47        1.68
  YS02001904           JUNCTION     0.42     1.85     8.48     0  02:06        1.85
  YS02001907           JUNCTION     0.73     1.96     8.25     0  01:47        1.96
  YS02001910           JUNCTION     0.53     2.10     8.61     0  02:06        2.10
  YS02001915           JUNCTION     0.35     2.00     8.72     0  01:47        1.70
  YS02001918           JUNCTION     0.19     1.81     8.88     0  01:48        1.37
  YS02001920           JUNCTION     0.27     2.14     9.15     0  01:49        1.49
  YS02001923           JUNCTION     0.14     2.03     9.29     0  01:49        1.29
  YS02001926           JUNCTION     0.17     1.90     9.35     0  01:49        0.99
  YS02001929           JUNCTION     0.09     1.78     9.47     0  01:48        1.06
  YS02006553           JUNCTION     0.73     2.19     8.47     0  02:06        2.19
  YS02006556           JUNCTION     0.70     2.19     8.50     0  01:48        1.93
  YS02006558           JUNCTION     0.75     2.27     8.53     0  01:48        1.98
  YS02006561           JUNCTION     0.17     1.52     8.18     0  01:48        0.88
  YS02163301           JUNCTION     0.56     2.03     8.55     0  02:06        2.03
  YS02163601           JUNCTION     0.64     2.08     8.48     0  01:47        2.05
  YS02164001           JUNCTION     0.57     2.00     8.46     0  01:47        1.94
  CC-1                 OUTFALL      0.00     0.00     0.00     0  00:00        0.00
  CC-2                 OUTFALL      0.00     0.00     0.00     0  00:00        0.00
  JK-1                 OUTFALL      0.00     0.00     0.00     0  00:00        0.00
  JK-2                 OUTFALL      0.00     0.00     0.00     0  00:00        0.00
  WSC                  OUTFALL      0.23     0.35     1.02     0  02:33        0.35
  CC-storage           STORAGE      0.82     1.58     7.08     0  02:15        1.58
  JK-storage           STORAGE      2.87     4.24     5.04     0  01:55        4.21
  XR-storage           STORAGE      7.84     9.26     7.26     0  08:00        9.26
  
  
  *******************
  Node Inflow Summary
  *******************
  
  -------------------------------------------------------------------------------------------------
                                  Maximum  Maximum                  Lateral       Total        Flow
                                  Lateral    Total  Time of Max      Inflow      Inflow     Balance
                                   Inflow   Inflow   Occurrence      Volume      Volume       Error
  Node                 Type           LPS      LPS  days hr:min    10^6 ltr    10^6 ltr     Percent
  -------------------------------------------------------------------------------------------------
  WS02001211           JUNCTION      7.35   201.22     0  02:59       0.212        5.44       0.611
  WS02001212           JUNCTION      0.00   202.89     0  03:28           0        5.41       0.290
  WS02001213           JUNCTION      0.00   205.24     0  03:28           0        5.39       0.331
  WS02003059           JUNCTION      0.00   210.44     0  03:29           0        5.38       0.592
  WS02003060           JUNCTION     16.53   750.78     0  02:21       0.476        9.13       0.153
  WS02003066           JUNCTION      0.00   536.58     0  02:27           0        3.31       0.036
  WS02003067           JUNCTION      0.00   536.56     0  02:27           0        3.31       0.121
  WS02003069           JUNCTION      0.32   750.95     0  02:31     0.00922        9.12       0.162
  WS02003072           JUNCTION      0.00   750.89     0  02:31           0        9.11       0.222
  WS02003073           JUNCTION      1.82   752.68     0  02:32      0.0524        9.14       0.228
  WS02004138           JUNCTION      0.00   380.00     0  00:00           0        5.25       0.053
  WS02004139           JUNCTION      0.32   191.16     0  00:29     0.00924        5.26       0.509
  WS02004401           JUNCTION      0.00   539.47     0  02:07           0        3.41       0.289
  WS02004402           JUNCTION      0.00   538.81     0  02:07           0         3.4       0.295
  WS02004403           JUNCTION      0.00   538.40     0  02:07           0        3.39       0.290
  WS02004404           JUNCTION      0.16   538.11     0  02:07     0.00467        3.38       0.254
  WS02004405           JUNCTION      0.04   538.10     0  02:07      0.0011        3.38       0.351
  WS02004406           JUNCTION      0.00   538.26     0  02:07           0        3.37       0.605
  WS02004407           JUNCTION      0.00   537.71     0  02:08           0        3.35       0.027
  WS02004409           JUNCTION      0.00   537.33     0  02:08           0        3.34       0.068
  WS02004410           JUNCTION      0.00   536.90     0  02:26           0        3.34       0.117
  WS02004411           JUNCTION      0.00   536.75     0  02:26           0        3.34       0.153
  WS02004412           JUNCTION      0.00   536.72     0  02:27           0        3.33       0.209
  WS02004413           JUNCTION      0.00   536.73     0  02:27           0        3.33       0.377
  WS02006109           JUNCTION      1.23   552.06     0  02:50      0.0354        3.45       0.225
  WS02006110           JUNCTION      0.00   552.63     0  02:50           0        3.44       0.185
  WS02006111           JUNCTION      0.00   566.31     0  02:06           0        3.44       0.019
  WS02006112           JUNCTION      0.00   545.59     0  02:06           0        3.44       0.510
  WS02006113           JUNCTION      0.00   568.70     0  02:51           0        3.44       0.048
  WS02006115           JUNCTION      0.00   546.37     0  03:14           0        3.42       0.180
  WS02006116           JUNCTION      0.00   540.88     0  02:06           0        3.41       0.075
  WS02006228           JUNCTION      0.00   550.01     0  02:50           0        3.42       0.101
  WS02006229           JUNCTION      0.00   549.58     0  02:50           0        3.42       0.142
  WS02006230           JUNCTION     10.28   582.36     0  02:50       0.296        3.43       0.149
  WS02006231           JUNCTION      0.00   568.45     0  03:09           0        3.13      -0.088
  WS02006232           JUNCTION      0.00   567.78     0  03:09           0        3.14       0.296
  WS02006234           JUNCTION      0.00   563.86     0  03:09           0        3.13      -0.230
  WS02006235           JUNCTION      0.00   558.32     0  02:50           0        3.21       0.257
  WS02006238           JUNCTION      0.00   423.72     0  02:51           0        2.21      -0.113
  WS02006239           JUNCTION      0.00   422.81     0  02:51           0        2.18      -0.022
  WS02006240           JUNCTION      0.00   420.50     0  02:51           0        2.14      -0.065
  WS02006242           JUNCTION      0.00   420.23     0  02:51           0        2.11      -0.154
  WS02006243           JUNCTION      0.00   419.99     0  02:51           0        2.09      -0.116
  WS02006245           JUNCTION      0.00   419.00     0  02:51           0         2.1       0.507
  WS02006247           JUNCTION      0.00   418.26     0  02:52           0         2.1      -0.044
  WS02006248           JUNCTION      0.00   419.59     0  02:52           0        2.09      -0.211
  WS02006249           JUNCTION      0.00   458.97     0  00:00           0        2.37       0.686
  WS02006251           JUNCTION      0.08   407.25     0  03:25     0.00222        2.37      -0.022
  WS02006252           JUNCTION      0.00   400.00     0  00:00           0        2.36      -0.311
  WS02006256           JUNCTION      0.00   300.00     0  00:00           0         1.5      -0.402
  WSF200               JUNCTION      0.00   536.61     0  02:28           0        3.31       0.013
  YS02001580           JUNCTION      0.00   150.14     0  01:46           0     0.00464       2.828
  YS02001583           JUNCTION      0.00   256.38     0  01:46           0      0.0151      -9.502
  YS02001586           JUNCTION    540.29   540.29     0  01:53        1.29         1.3       0.120
  YS02001590           JUNCTION      0.00   326.16     0  02:06           0        1.13      -0.043
  YS02001593           JUNCTION      0.00   321.59     0  02:06           0        1.13       0.000
  YS02001596           JUNCTION      0.00   318.00     0  02:03           0        1.13      -0.019
  YS02001600           JUNCTION      0.00   318.27     0  02:02           0        1.13      -0.003
  YS02001601           JUNCTION    958.54  1276.15     0  01:51        1.72        2.85       0.006
  YS02001602           JUNCTION      0.00   559.67     0  01:46           0        1.98       0.009
  YS02001605           JUNCTION      0.00   559.69     0  01:45           0         1.9       0.005
  YS02001607           JUNCTION      0.00   559.58     0  01:45           0         1.9       0.093
  YS02001610           JUNCTION      0.00   549.27     0  01:46           0        1.92       0.100
  YS02001613           JUNCTION      0.00   556.55     0  01:46           0        1.62       0.088
  YS02001616           JUNCTION      0.00   573.42     0  01:46           0        1.62       0.028
  YS02001619           JUNCTION    933.65   992.17     0  01:46           2        3.59      -0.003
  YS02001622           JUNCTION      0.00   995.66     0  01:46           0        3.56      -0.014
  YS02001625           JUNCTION      0.00  1042.75     0  01:53           0         3.6       0.234
  YS02001629           JUNCTION      0.00   962.18     0  01:46           0        3.03       0.018
  YS02001633           JUNCTION    737.70  1447.87     0  01:47         1.3        4.26       0.073
  YS02001641           JUNCTION      0.00  1447.99     0  01:47           0        4.22       0.064
  YS02001644           JUNCTION    633.67  1924.09     0  01:47        1.07        5.28       0.061
  YS02001647           JUNCTION      0.00  1923.69     0  01:47           0         5.2       0.009
  YS02001649           JUNCTION      0.00  2180.16     0  01:48           0        6.23       0.006
  YS02001652           JUNCTION      0.00   825.18     0  01:51           0        1.03      -0.091
  YS02001655           JUNCTION      0.15   825.59     0  01:51     0.00443        1.03       0.005
  YS02001658           JUNCTION      0.00   826.29     0  01:51           0        1.02      -0.102
  YS02001661           JUNCTION      0.00   763.35     0  01:50           0        1.02       0.007
  YS02001664           JUNCTION    636.34   636.34     0  01:50        1.02        1.02      -0.015
  YS02001745           JUNCTION    396.04   655.49     0  01:49       0.585       0.587       0.252
  YS02001748           JUNCTION      0.04   630.25     0  01:49      0.0013       0.591      -0.445
  YS02001751           JUNCTION      0.01   563.89     0  01:50    0.000317       0.601       0.084
  YS02001754           JUNCTION      0.26   565.40     0  01:50     0.00749       0.617      -0.170
  YS02001757           JUNCTION      0.00  3338.97     0  01:50           0        8.95       0.029
  YS02001759           JUNCTION    574.87  1359.02     0  01:49       0.856        2.11      -0.017
  YS02001762           JUNCTION      0.00   790.21     0  01:49           0        1.26       0.015
  YS02001765           JUNCTION      0.00   787.85     0  01:49           0        1.26      -0.006
  YS02001767           JUNCTION      0.54   785.66     0  01:49      0.0154        1.26      -0.005
  YS02001770           JUNCTION    782.16   782.16     0  01:50        1.26         1.3      -0.022
  YS02001774           JUNCTION      0.00   535.94     0  01:48           0      0.0769       1.139
  YS02001779           JUNCTION      0.01   536.26     0  01:48    0.000144      0.0338      -1.993
  YS02001783           JUNCTION      0.00  1156.91     0  01:49           0        3.31       0.009
  YS02001784           JUNCTION      1.06  1158.60     0  01:49      0.0305        3.34       0.013
  YS02001786           JUNCTION      0.06  1158.10     0  01:49     0.00162        3.34       0.020
  YS02001788           JUNCTION      0.07  1159.18     0  01:49     0.00204        3.34       0.009
  YS02001790           JUNCTION      0.15  1173.58     0  01:50     0.00446        3.34       0.025
  YS02001791           JUNCTION      0.00  1279.07     0  01:51           0        3.34      -0.026
  YS02001793           JUNCTION      0.00  1254.20     0  01:51           0        3.34       0.006
  YS02001882           JUNCTION      0.00    79.37     0  01:47           0      0.0129       3.730
  YS02001884           JUNCTION      0.00   131.26     0  01:47           0      0.0488       5.372
  YS02001887           JUNCTION    615.86   616.36     0  01:50       0.886        0.92       0.471
  YS02001890           JUNCTION      0.00   616.63     0  01:50           0       0.879       0.565
  YS02001895           JUNCTION      0.00   554.20     0  01:48           0       0.859       0.188
  YS02001898           JUNCTION      0.00   553.48     0  01:48           0       0.857      -0.011
  YS02001901           JUNCTION      0.00   552.08     0  01:48           0       0.859       0.374
  YS02001904           JUNCTION      0.00   551.55     0  01:48           0       0.864       0.293
  YS02001907           JUNCTION      0.00  1617.58     0  01:49           0        2.64       0.665
  YS02001910           JUNCTION      0.00  1091.64     0  01:49           0        1.78       0.396
  YS02001915           JUNCTION    644.17  1091.17     0  01:49        1.09        1.83       0.077
  YS02001918           JUNCTION      0.00   607.50     0  01:48           0       0.775       0.042
  YS02001920           JUNCTION      2.87   612.44     0  01:48      0.0827       0.753       0.129
  YS02001923           JUNCTION      0.04   788.61     0  01:48     0.00109       0.654      -0.136
  YS02001926           JUNCTION      0.05  1093.80     0  01:48      0.0015       0.634      -0.361
  YS02001929           JUNCTION    328.46  1040.11     0  01:48       0.612       0.618      -0.140
  YS02006553           JUNCTION      0.00   792.62     0  02:03           0        2.13       0.551
  YS02006556           JUNCTION      0.00   793.33     0  02:03           0        2.14       0.359
  YS02006558           JUNCTION    783.01  1181.89     0  01:48        1.23        3.34       0.104
  YS02006561           JUNCTION      0.00  1181.74     0  01:48           0        3.31      -0.004
  YS02163301           JUNCTION      0.00   923.45     0  01:47           0        3.01       0.040
  YS02163601           JUNCTION      0.11  1447.86     0  01:47     0.00317        4.21       0.112
  YS02164001           JUNCTION      0.00  1448.01     0  01:47           0        4.21       0.054
  CC-1                 OUTFALL       0.00   683.00     0  00:00           0        3.76       0.000
  CC-2                 OUTFALL       0.00   683.00     0  00:00           0        3.56       0.000
  JK-1                 OUTFALL       0.00  1000.00     0  00:00           0        1.75       0.000
  JK-2                 OUTFALL       0.00  1000.00     0  00:00           0      0.0484       0.000
  WSC                  OUTFALL       0.00   752.66     0  02:33           0        9.12       0.000
  CC-storage           STORAGE       0.00  3338.25     0  01:50           0        11.2      -0.235
  JK-storage           STORAGE       0.00  1233.99     0  01:50           0        3.49       0.185
  XR-storage           STORAGE     200.00   200.00     0  00:00        5.76        6.36       0.001
  
  
  **********************
  Node Surcharge Summary
  **********************
  
  Surcharging occurs when water rises above the top of the highest conduit.
  ---------------------------------------------------------------------
                                               Max. Height   Min. Depth
                                   Hours       Above Crown    Below Rim
  Node                 Type      Surcharged         Meters       Meters
  ---------------------------------------------------------------------
  WS02006109           JUNCTION        1.42          0.456        1.364
  WS02006110           JUNCTION        0.97          0.218        1.632
  WS02006112           JUNCTION        0.92          0.061        1.619
  WS02006228           JUNCTION        1.42          0.452        1.748
  WS02006229           JUNCTION        1.42          0.417        2.033
  WS02006230           JUNCTION        0.97          0.169        1.401
  WS02006231           JUNCTION        1.02          0.306        1.224
  WS02006232           JUNCTION        1.44          1.480        0.000
  WS02006234           JUNCTION        1.14          0.451        0.789
  WS02006235           JUNCTION        1.41          0.723        0.567
  WS02006238           JUNCTION        1.43          1.430        0.000
  WS02006239           JUNCTION        1.42          0.656        0.634
  WS02006240           JUNCTION        1.42          0.630        0.760
  WS02006242           JUNCTION        1.43          0.820        0.000
  WS02006243           JUNCTION        1.41          0.770        0.000
  WS02006245           JUNCTION        1.41          0.850        0.000
  WS02006247           JUNCTION        1.41          0.504        0.256
  WS02006248           JUNCTION        1.40          0.380        0.000
  WS02006249           JUNCTION        1.40          0.390        0.000
  WS02006251           JUNCTION        1.05          0.328        0.852
  WS02006252           JUNCTION        1.59          1.100        0.000
  WS02006256           JUNCTION        3.81          2.050        0.000
  YS02001580           JUNCTION        0.47          0.450        0.000
  YS02001583           JUNCTION        0.47          0.500        0.000
  YS02001586           JUNCTION        0.59          0.510        0.000
  YS02001590           JUNCTION        0.66          0.750        0.000
  YS02001593           JUNCTION        0.67          0.840        0.000
  YS02001596           JUNCTION        0.76          1.070        0.000
  YS02001600           JUNCTION        0.89          1.190        0.000
  YS02001601           JUNCTION        1.29          1.440        0.000
  YS02001602           JUNCTION        1.14          1.270        0.000
  YS02001605           JUNCTION        1.08          1.180        0.000
  YS02001607           JUNCTION        0.64          0.671        0.009
  YS02001610           JUNCTION        0.66          0.680        0.000
  YS02001613           JUNCTION        0.63          0.700        0.000
  YS02001616           JUNCTION        0.59          0.610        0.000
  YS02001619           JUNCTION        0.58          0.610        0.000
  YS02001622           JUNCTION        0.58          0.620        0.000
  YS02001625           JUNCTION        0.74          0.780        0.000
  YS02001629           JUNCTION        0.53          0.470        0.000
  YS02001633           JUNCTION        0.77          1.060        0.000
  YS02001641           JUNCTION        0.71          0.968        0.132
  YS02001644           JUNCTION        0.68          0.920        0.000
  YS02001647           JUNCTION        0.50          0.781        0.119
  YS02001649           JUNCTION        0.61          1.050        0.000
  YS02001652           JUNCTION        0.42          0.878        0.252
  YS02001655           JUNCTION        0.28          0.865        0.335
  YS02001658           JUNCTION        0.11          0.834        0.466
  YS02001661           JUNCTION        0.01          0.478        0.912
  YS02001748           JUNCTION        0.02          0.932        0.258
  YS02001751           JUNCTION        0.17          0.932        0.268
  YS02001754           JUNCTION        0.33          0.884        0.266
  YS02001757           JUNCTION        0.68          1.210        0.000
  YS02001759           JUNCTION        0.58          1.210        0.000
  YS02001762           JUNCTION        0.54          1.066        0.084
  YS02001765           JUNCTION        0.50          1.053        0.047
  YS02001767           JUNCTION        0.47          1.030        0.000
  YS02001770           JUNCTION        0.44          0.920        0.000
  YS02001774           JUNCTION        0.52          1.050        0.000
  YS02001779           JUNCTION        0.32          0.680        0.000
  YS02001783           JUNCTION        0.40          0.858        0.742
  YS02001784           JUNCTION        0.38          0.570        0.920
  YS02001786           JUNCTION        0.29          0.253        1.177
  YS02001882           JUNCTION        0.36          0.830        0.000
  YS02001884           JUNCTION        0.37          0.868        0.002
  YS02001887           JUNCTION        0.39          0.909        0.041
  YS02001890           JUNCTION        0.41          0.760        0.000
  YS02001895           JUNCTION        0.35          0.750        0.000
  YS02001898           JUNCTION        0.34          0.740        0.000
  YS02001901           JUNCTION        0.38          0.870        0.000
  YS02001904           JUNCTION        0.37          0.850        0.000
  YS02001907           JUNCTION        0.58          0.950        0.000
  YS02001910           JUNCTION        0.43          1.100        0.000
  YS02001915           JUNCTION        0.35          1.000        0.000
  YS02001918           JUNCTION        0.28          0.810        0.000
  YS02001920           JUNCTION        0.29          1.140        0.000
  YS02001923           JUNCTION        0.01          0.820        0.000
  YS02001926           JUNCTION        0.02          0.900        0.000
  YS02001929           JUNCTION        0.01          0.780        0.000
  YS02006553           JUNCTION        0.59          1.190        0.000
  YS02006556           JUNCTION        0.50          1.151        0.199
  YS02006558           JUNCTION        0.49          1.166        0.234
  YS02006561           JUNCTION        0.24          0.716        0.434
  YS02163301           JUNCTION        0.75          1.030        0.000
  YS02163601           JUNCTION        0.79          1.080        0.000
  YS02164001           JUNCTION        0.72          1.005        0.095
  
  
  *********************
  Node Flooding Summary
  *********************
  
  Flooding refers to all water that overflows a node, whether it ponds or not.
  --------------------------------------------------------------------------
                                                             Total   Maximum
                                 Maximum   Time of Max       Flood    Ponded
                        Hours       Rate    Occurrence      Volume     Depth
  Node                 Flooded       LPS   days hr:min    10^6 ltr    Meters
  --------------------------------------------------------------------------
  WS02006232              0.01      0.39      0  02:06       0.000     0.000
  WS02006238              0.01      0.57      0  02:06       0.000     0.000
  WS02006242              0.01      0.39      0  02:06       0.000     0.000
  WS02006243              0.01      0.51      0  02:06       0.000     0.000
  WS02006245              0.01      0.25      0  02:06       0.000     0.000
  WS02006248              0.01     14.23      0  02:50       0.000     0.000
  WS02006249              1.04     97.69      0  01:52       0.259     0.000
  WS02006252              0.01    245.63      0  00:00       0.000     0.000
  WS02006256              1.38    293.19      0  00:00       0.456     0.000
  YS02001580              0.01     98.30      0  01:46       0.000     0.000
  YS02001583              0.01    229.26      0  01:46       0.000     0.000
  YS02001586              0.36    222.70      0  01:53       0.164     0.000
  YS02001590              0.01     79.92      0  01:44       0.000     0.000
  YS02001593              0.01     17.97      0  01:44       0.000     0.000
  YS02001596              0.01      0.26      0  02:06       0.000     0.000
  YS02001600              0.01      4.29      0  01:44       0.000     0.000
  YS02001601              0.52    878.30      0  01:51       0.864     0.000
  YS02001602              0.44     61.97      0  02:07       0.087     0.000
  YS02001605              0.01      2.02      0  01:46       0.000     0.000
  YS02001610              0.38    426.74      0  01:53       0.329     0.000
  YS02001613              0.01      1.39      0  02:06       0.000     0.000
  YS02001616              0.01     20.77      0  01:46       0.000     0.000
  YS02001619              0.01     99.81      0  01:46       0.000     0.000
  YS02001622              0.01    308.55      0  01:46       0.001     0.000
  YS02001625              0.34   1042.43      0  01:53       0.618     0.000
  YS02001629              0.07    328.73      0  01:46       0.023     0.000
  YS02001633              0.01      3.93      0  01:47       0.000     0.000
  YS02001644              0.08    475.38      0  01:50       0.066     0.000
  YS02001649              0.01      1.19      0  02:06       0.000     0.000
  YS02001757              0.01      0.17      0  02:06       0.000     0.000
  YS02001759              0.01      1.05      0  02:06       0.000     0.000
  YS02001767              0.01    176.22      0  01:48       0.000     0.000
  YS02001770              0.01    346.55      0  01:48       0.001     0.000
  YS02001774              0.01     28.39      0  01:48       0.000     0.000
  YS02001779              0.05    507.37      0  01:48       0.016     0.000
  YS02001882              0.01     75.96      0  01:47       0.000     0.000
  YS02001890              0.08    117.26      0  01:47       0.015     0.000
  YS02001895              0.01     80.14      0  01:47       0.000     0.000
  YS02001898              0.01    211.98      0  01:47       0.000     0.000
  YS02001901              0.01     11.49      0  01:47       0.000     0.000
  YS02001904              0.01      0.74      0  02:06       0.000     0.000
  YS02001907              0.23   1243.43      0  01:50       0.503     0.000
  YS02001910              0.01      0.57      0  02:06       0.000     0.000
  YS02001915              0.01    195.46      0  01:47       0.000     0.000
  YS02001918              0.01    192.36      0  01:49       0.003     0.000
  YS02001920              0.01     35.22      0  01:49       0.000     0.000
  YS02001923              0.01    167.41      0  01:49       0.001     0.000
  YS02001926              0.01    518.95      0  01:49       0.003     0.000
  YS02001929              0.01    729.52      0  01:48       0.002     0.000
  YS02006553              0.01      0.70      0  02:06       0.000     0.000
  YS02163301              0.01      0.89      0  02:06       0.000     0.000
  YS02163601              0.01      5.59      0  01:47       0.000     0.000
  
  
  **********************
  Storage Volume Summary
  **********************
  
  ------------------------------------------------------------------------------------------------
                         Average    Avg   Evap  Exfil     Maximum    Max    Time of Max    Maximum
                          Volume   Pcnt   Pcnt   Pcnt      Volume   Pcnt     Occurrence    Outflow
  Storage Unit           1000 m³   Full   Loss   Loss     1000 m³   Full    days hr:min        LPS
  ------------------------------------------------------------------------------------------------
  CC-storage               2.274   35.5    0.0    0.0       4.394   68.5       0  02:15    1783.53
  JK-storage               0.144   49.6    0.0    0.0       0.213   73.0       0  01:55    2300.00
  XR-storage               0.940   65.3    0.0    0.0       1.111   77.2       0  08:00     380.00
  
  
  ***********************
  Outfall Loading Summary
  ***********************
  
  -----------------------------------------------------------
                         Flow       Avg       Max       Total
                         Freq      Flow      Flow      Volume
  Outfall Node           Pcnt       LPS       LPS    10^6 ltr
  -----------------------------------------------------------
  CC-1                  32.67    683.00    683.00       3.764
  CC-2                  30.78    683.00    683.00       3.563
  JK-1                  14.49   1000.00   1000.00       1.754
  JK-2                   0.26   1000.00   1000.00       0.048
  WSC                   99.93    380.91    752.66       9.118
  -----------------------------------------------------------
  System                35.63   3746.91   3366.23      18.247
  
  
  ********************
  Link Flow Summary
  ********************
  
  -----------------------------------------------------------------------------
                                 Maximum  Time of Max   Maximum    Max/    Max/
                                  |Flow|   Occurrence   |Veloc|    Full    Full
  Link                 Type          LPS  days hr:min     m/sec    Flow   Depth
  -----------------------------------------------------------------------------
  1                    CONDUIT    752.66     0  02:33      3.08    0.26    0.35
  WS02001211WS02001212 CONDUIT    202.89     0  03:28      0.54    0.16    0.51
  WS02001212WS02001213 CONDUIT    205.24     0  03:28      1.04    0.32    0.36
  WS02001213WS02003059 CONDUIT    210.44     0  03:29      0.47    0.35    0.67
  WS02003059WS02003060 CONDUIT    217.89     0  03:27      0.67    0.14    0.58
  WS02003060WS02003069 CONDUIT    750.63     0  02:31      1.77    0.29    0.40
  WS02003066WSF200     CONDUIT    536.61     0  02:28      2.74    0.09    0.23
  WS02003067WS02003066 CONDUIT    536.58     0  02:27      1.21    0.17    0.42
  WS02003069WS02003072 CONDUIT    750.89     0  02:31      1.51    0.36    0.45
  WS02003072WS02003073 CONDUIT    750.85     0  02:32      1.60    1.62    0.43
  WS02004138WS02004139 CONDUIT    190.84     0  00:29      2.17    0.04    0.33
  WS02004139WS02001211 CONDUIT    193.87     0  02:59      0.54    0.25    0.47
  WS02004401WS02004402 CONDUIT    538.81     0  02:07      0.97    0.65    0.86
  WS02004402WS02004403 CONDUIT    538.40     0  02:07      0.97    0.77    0.88
  WS02004403WS02004404 CONDUIT    537.95     0  02:07      0.92    0.39    0.93
  WS02004404WS02004405 CONDUIT    538.06     0  02:07      1.08    5.27    0.96
  WS02004405WS02004406 CONDUIT    538.26     0  02:07      0.99    1.06    0.96
  WS02004406WS02004407 CONDUIT    537.71     0  02:08      1.04    0.24    0.63
  WS02004407WS02004409 CONDUIT    537.33     0  02:08      1.57    0.19    0.48
  WS02004409WS02004410 CONDUIT    536.90     0  02:26      1.05    0.69    0.67
  WS02004410WS02004411 CONDUIT    536.75     0  02:26      1.00    0.73    0.69
  WS02004411WS02004412 CONDUIT    536.72     0  02:27      0.96    0.76    0.69
  WS02004412WS02004413 CONDUIT    536.73     0  02:27      0.82    0.36    0.78
  WS02004413WS02003067 CONDUIT    536.56     0  02:27      1.11    0.23    0.59
  WS02006109WS02006110 CONDUIT    552.63     0  02:50      1.10    1.06    1.00
  WS02006110WS02006113 CONDUIT    568.70     0  02:51      1.36    0.52    0.79
  WS02006111WS02006112 CONDUIT    545.59     0  02:06      1.82    0.26    0.67
  WS02006112WS02006115 CONDUIT    546.37     0  03:14      0.87    0.32    0.87
  WS02006113WS02006111 CONDUIT    566.31     0  02:06      2.47    0.68    0.47
  WS02006115WS02006116 CONDUIT    540.88     0  02:06      1.13    0.69    0.76
  WS02006116WS02004401 CONDUIT    539.47     0  02:07      0.98    0.74    0.84
  WS02006228WS02006109 CONDUIT    550.83     0  02:50      1.10    2.41    1.00
  WS02006229WS02006228 CONDUIT    550.01     0  02:50      1.15    1.82    1.00
  WS02006230WS02006229 CONDUIT    549.58     0  02:50      1.43   12.23    1.00
  WS02006231WS02006230 CONDUIT    572.08     0  02:50      1.55    8.68    1.00
  WS02006232WS02006231 CONDUIT    568.45     0  03:09      1.48    1.19    1.00
  WS02006234WS02006232 CONDUIT    567.78     0  03:09      1.48    1.15    1.00
  WS02006235WS02006234 CONDUIT    563.86     0  03:09      1.47    5.95    1.00
  WS02006238WS02006235 CONDUIT    424.70     0  02:51      1.57    0.95    1.00
  WS02006239WS02006238 CONDUIT    423.72     0  02:51      1.11    1.36    1.00
  WS02006240WS02006239 CONDUIT    422.81     0  02:51      1.24    1.33    1.00
  WS02006242WS02006240 CONDUIT    420.50     0  02:51      1.12    1.67    1.00
  WS02006243WS02006242 CONDUIT    420.23     0  02:51      1.39    0.90    1.00
  WS02006245WS02006243 CONDUIT    419.99     0  02:51      1.45    1.24    1.00
  WS02006247WS02006245 CONDUIT    419.00     0  02:51      1.44    3.32    1.00
  WS02006248WS02006247 CONDUIT    418.26     0  02:52      1.45    0.91    1.00
  WS02006249WS02006248 CONDUIT    419.59     0  02:52      1.37    2.30    1.00
  WS02006251WS02006249 CONDUIT    458.97     0  00:00      1.99    1.32    1.00
  WS02006252WS02006251 CONDUIT    407.17     0  03:25     25.11    1.49    1.00
  WS02006256WS02006235 CONDUIT    289.22     0  01:44      4.23    3.06    1.00
  WSF200WS02003060     CONDUIT    536.67     0  02:28      1.76    0.12    0.32
  YS02001580YS02001583 CONDUIT    150.14     0  01:46      0.85    0.58    1.00
  YS02001583YS02001586 CONDUIT    192.26     0  01:46      0.85    0.29    1.00
  YS02001586YS02001590 CONDUIT    326.16     0  02:06      1.28    0.57    1.00
  YS02001590YS02001593 CONDUIT    321.59     0  02:06      1.14    2.02    1.00
  YS02001593YS02001596 CONDUIT    318.00     0  02:03      1.74    0.50    1.00
  YS02001596YS02001600 CONDUIT    318.27     0  02:02      1.20    0.62    1.00
  YS02001600YS02001601 CONDUIT    318.19     0  02:02      1.13    0.55    1.00
  YS02001601YS02001602 CONDUIT    559.67     0  01:46      1.98    2.02    1.00
  YS02001602YS02001605 CONDUIT    559.69     0  01:45      1.98   11.84    1.00
  YS02001605YS02001607 CONDUIT    559.58     0  01:45      1.98    3.07    1.00
  YS02001607YS02001610 CONDUIT    549.27     0  01:46      0.70    0.52    1.00
  YS02001610YS02001613 CONDUIT    556.55     0  01:46      0.71    0.64    1.00
  YS02001613YS02001616 CONDUIT    573.42     0  01:46      0.73    0.49    1.00
  YS02001616YS02001619 CONDUIT    530.54     0  01:46      0.68    0.92    1.00
  YS02001619YS02001622 CONDUIT    995.66     0  01:46      1.27    1.47    1.00
  YS02001622YS02001625 CONDUIT    962.15     0  01:46      1.23    0.51    1.00
  YS02001625YS02001629 CONDUIT    962.18     0  01:46      1.23    0.46    1.00
  YS02001629YS02163301 CONDUIT    923.45     0  01:47      1.18    1.14    1.00
  YS02001633YS02163601 CONDUIT   1447.75     0  01:47      1.84    1.52    1.00
  YS02001641YS02001644 CONDUIT   1447.75     0  01:47      1.84    4.68    1.00
  YS02001644YS02001647 CONDUIT   1923.69     0  01:47      2.45    1.13    1.00
  YS02001647YS02001649 CONDUIT   1904.58     0  01:47      2.42    1.01    1.00
  YS02001649YS02001757 CONDUIT   2181.27     0  01:48      2.78    1.32    1.00
  YS02001652YS02001649 CONDUIT    825.03     0  01:51      1.05    0.41    1.00
  YS02001655YS02001652 CONDUIT    825.18     0  01:51      1.42    0.40    1.00
  YS02001658YS02001655 CONDUIT    825.44     0  01:51      2.01    0.35    1.00
  YS02001661YS02001658 CONDUIT    826.29     0  01:51      2.41    0.32    1.00
  YS02001664YS02001661 CONDUIT    763.35     0  01:50      2.47    0.24    0.83
  YS02001745YS02001748 CONDUIT    630.20     0  01:49      2.30    0.24    1.00
  YS02001748YS02001751 CONDUIT    563.88     0  01:50      1.80    0.28    1.00
  YS02001751YS02001754 CONDUIT    565.14     0  01:50      1.50    0.27    1.00
  YS02001754YS02001757 CONDUIT    565.36     0  01:50      0.72    0.23    1.00
  YS02001757CaochengTiaoxuchi CONDUIT   3338.25     0  01:50      4.25    1.44    1.00
  YS02001759YS02001757 CONDUIT   1358.53     0  01:49      1.73    0.97    1.00
  YS02001762YS02001759 CONDUIT    791.48     0  01:49      1.01    0.91    1.00
  YS02001765YS02001762 CONDUIT    790.21     0  01:49      1.01    0.74    1.00
  YS02001767YS02001765 CONDUIT    787.85     0  01:49      1.00    0.99    1.00
  YS02001770YS02001767 CONDUIT    785.13     0  01:49      1.00    3.11    1.00
  YS02001774YS02001770 CONDUIT    535.94     0  01:48      0.68    0.34    1.00
  YS02001779YS02001774 CONDUIT    536.25     0  01:48      0.68    0.27    1.00
  YS02001783YS02001784 CONDUIT   1157.54     0  01:49      2.30    1.60    1.00
  YS02001784YS02001785 CONDUIT   1158.04     0  01:49      2.30    2.69    1.00
  YS02001786YS02001788 CONDUIT   1159.10     0  01:49      2.47    2.23    0.89
  YS02001788YS02001790 CONDUIT   1173.42     0  01:50      2.71    0.86    0.84
  YS02001790YS02001791 CONDUIT   1279.07     0  01:51      3.43    1.39    0.70
  YS02001791YS02001793 CONDUIT   1254.20     0  01:51      6.71    0.54    0.44
  YS02001793JiankangQianchi CONDUIT   1233.99     0  01:50      2.48    0.10    0.65
  YS02001882YS02001884 CONDUIT     79.37     0  01:47      0.14    0.09    1.00
  YS02001884YS02001887 CONDUIT    131.26     0  01:47      0.17    0.17    1.00
  YS02001887YS02001890 CONDUIT    616.63     0  01:50      0.79    1.06    1.00
  YS02001890YS02001895 CONDUIT    554.20     0  01:48      0.71    0.26    1.00
  YS02001895YS02001898 CONDUIT    553.48     0  01:48      0.70    0.96    1.00
  YS02001898YS02001901 CONDUIT    552.08     0  01:48      0.70    0.36    1.00
  YS02001901YS02001904 CONDUIT    551.55     0  01:48      0.70    0.86    1.00
  YS02001904YS02001907 CONDUIT    551.53     0  01:48      0.70    0.19    1.00
  YS02001907YS02006553 CONDUIT    792.62     0  02:03      0.88    0.93    1.00
  YS02001910YS02001907 CONDUIT   1091.29     0  01:49      1.39    0.62    1.00
  YS02001915YS02001910 CONDUIT   1091.64     0  01:49      1.39    0.54    1.00
  YS02001918YS02001915 CONDUIT    607.50     0  01:48      0.78    0.34    1.00
  YS02001920YS02001918 CONDUIT    609.57     0  01:48      0.78    0.59    1.00
  YS02001923YS02001920 CONDUIT    608.79     0  01:48      0.80    0.27    1.00
  YS02001926YS02001923 CONDUIT    859.18     0  01:48      1.29    1.23    1.00
  YS02001929YS02001926 CONDUIT    757.66     0  01:48      1.23    0.36    1.00
  YS02006553YS02006556 CONDUIT    793.33     0  02:03      1.01    0.68    1.00
  YS02006556YS02006558 CONDUIT    794.27     0  02:03      1.01    0.63    1.00
  YS02006558YS02006561 CONDUIT   1181.74     0  01:48      4.18    2.61    1.00
  YS02006561YS02001783 CONDUIT   1156.91     0  01:49      2.30    0.60    1.00
  YS02163301YS02001633 CONDUIT    923.24     0  01:47      1.18    0.87    1.00
  YS02163601YS02164001 CONDUIT   1448.01     0  01:47      1.84    1.28    1.00
  YS02164001YS02001641 CONDUIT   1447.99     0  01:47      1.84    1.98    1.00
  CC-R1                PUMP       683.00     0  00:00              1.00
  CC-R2                PUMP       683.00     0  00:00              1.00
  CC-S1                PUMP       200.00     0  00:00              1.00
  CC-S2                PUMP       200.00     0  00:00              1.00
  JK-R1                PUMP      1000.00     0  00:00              1.00
  JK-R2                PUMP      1000.00     0  00:00              1.00
  JK-S                 PUMP       300.00     0  00:00              1.00
  XR-1                 PUMP        95.00     0  00:00              1.00
  XR-2                 PUMP        95.00     0  00:00              1.00
  XR-3                 PUMP        95.00     0  00:00              1.00
  XR-4                 PUMP        95.00     0  00:00              1.00
  
  
  ***************************
  Flow Classification Summary
  ***************************
  
  -------------------------------------------------------------------------------------
                      Adjusted    ---------- Fraction of Time in Flow Class ---------- 
                       /Actual         Up    Down  Sub   Sup   Up    Down  Norm  Inlet 
  Conduit               Length    Dry  Dry   Dry   Crit  Crit  Crit  Crit  Ltd   Ctrl  
  -------------------------------------------------------------------------------------
  1                       1.00   0.00  0.00  0.00  0.00  1.00  0.00  0.00  0.18  0.00
  WS02001211WS02001212    1.00   0.00  0.02  0.00  0.98  0.00  0.00  0.00  0.00  0.00
  WS02001212WS02001213    1.00   0.02  0.00  0.00  0.20  0.00  0.78  0.00  0.00  0.00
  WS02001213WS02003059    1.00   0.00  0.01  0.00  0.99  0.00  0.00  0.00  0.00  0.00
  WS02003059WS02003060    1.00   0.00  0.00  0.00  1.00  0.00  0.00  0.00  0.03  0.00
  WS02003060WS02003069    1.00   0.00  0.00  0.00  0.98  0.02  0.00  0.00  0.68  0.00
  WS02003066WSF200        1.00   0.13  0.00  0.00  0.00  0.87  0.00  0.00  0.74  0.00
  WS02003067WS02003066    1.00   0.10  0.02  0.00  0.88  0.00  0.00  0.00  0.00  0.00
  WS02003069WS02003072    1.00   0.00  0.00  0.00  1.00  0.00  0.00  0.00  0.78  0.00
  WS02003072WS02003073    1.00   0.00  0.00  0.00  0.00  0.00  0.00  1.00  0.00  0.00
  WS02004138WS02004139    1.00   0.00  0.00  0.00  0.97  0.01  0.00  0.02  0.98  0.00
  WS02004139WS02001211    1.00   0.00  0.00  0.00  0.99  0.00  0.00  0.00  0.00  0.00
  WS02004401WS02004402    1.00   0.02  0.00  0.00  0.98  0.00  0.00  0.00  0.00  0.00
  WS02004402WS02004403    1.00   0.02  0.00  0.00  0.97  0.00  0.00  0.00  0.00  0.00
  WS02004403WS02004404    1.00   0.00  0.03  0.00  0.97  0.00  0.00  0.00  0.00  0.00
  WS02004404WS02004405    1.00   0.00  0.00  0.00  1.00  0.00  0.00  0.00  0.01  0.00
  WS02004405WS02004406    1.00   0.00  0.00  0.00  1.00  0.00  0.00  0.00  0.00  0.00
  WS02004406WS02004407    1.00   0.00  0.05  0.00  0.95  0.00  0.00  0.00  0.00  0.00
  WS02004407WS02004409    1.00   0.05  0.00  0.00  0.94  0.01  0.00  0.00  0.94  0.00
  WS02004409WS02004410    1.00   0.05  0.00  0.00  0.95  0.00  0.00  0.00  0.03  0.00
  WS02004410WS02004411    1.00   0.05  0.00  0.00  0.95  0.00  0.00  0.00  0.01  0.00
  WS02004411WS02004412    1.00   0.05  0.00  0.00  0.95  0.00  0.00  0.00  0.00  0.00
  WS02004412WS02004413    1.00   0.05  0.00  0.00  0.94  0.00  0.00  0.00  0.01  0.00
  WS02004413WS02003067    1.00   0.06  0.04  0.00  0.00  0.00  0.90  0.00  0.00  0.00
  WS02006109WS02006110    1.00   0.00  0.01  0.00  0.98  0.00  0.01  0.00  0.00  0.00
  WS02006110WS02006113    1.00   0.01  0.01  0.00  0.98  0.00  0.00  0.00  0.00  0.00
  WS02006111WS02006112    1.00   0.02  0.00  0.00  0.98  0.00  0.00  0.00  0.98  0.00
  WS02006112WS02006115    1.00   0.02  0.00  0.00  0.97  0.00  0.00  0.00  0.00  0.00
  WS02006113WS02006111    1.00   0.02  0.00  0.00  0.00  0.98  0.00  0.00  0.09  0.00
  WS02006115WS02006116    1.00   0.02  0.00  0.00  0.97  0.00  0.00  0.01  0.00  0.00
  WS02006116WS02004401    1.00   0.02  0.00  0.00  0.98  0.00  0.00  0.00  0.00  0.00
  WS02006228WS02006109    1.00   0.00  0.00  0.00  1.00  0.00  0.00  0.00  0.00  0.00
  WS02006229WS02006228    1.00   0.00  0.00  0.00  0.99  0.00  0.00  0.01  0.00  0.00
  WS02006230WS02006229    1.00   0.00  0.00  0.00  0.99  0.00  0.00  0.01  0.00  0.00
  WS02006231WS02006230    1.00   0.00  0.00  0.00  0.18  0.00  0.81  0.00  0.00  0.00
  WS02006232WS02006231    1.00   0.00  0.00  0.00  0.99  0.00  0.01  0.00  0.00  0.00
  WS02006234WS02006232    1.00   0.00  0.00  0.00  1.00  0.00  0.00  0.00  0.38  0.00
  WS02006235WS02006234    1.00   0.00  0.00  0.00  0.56  0.00  0.44  0.00  0.00  0.00
  WS02006238WS02006235    1.00   0.00  0.00  0.00  1.00  0.00  0.00  0.00  0.00  0.00
  WS02006239WS02006238    1.00   0.00  0.00  0.00  1.00  0.00  0.00  0.00  0.53  0.00
  WS02006240WS02006239    1.00   0.00  0.00  0.00  0.40  0.00  0.00  0.60  0.02  0.00
  WS02006242WS02006240    1.00   0.00  0.00  0.00  1.00  0.00  0.00  0.00  0.00  0.00
  WS02006243WS02006242    1.00   0.00  0.00  0.00  0.99  0.00  0.00  0.01  0.73  0.00
  WS02006245WS02006243    1.00   0.00  0.00  0.00  0.46  0.00  0.00  0.54  0.01  0.00
  WS02006247WS02006245    1.00   0.00  0.00  0.00  0.98  0.00  0.00  0.01  0.00  0.00
  WS02006248WS02006247    1.00   0.00  0.00  0.00  0.99  0.00  0.00  0.01  0.23  0.00
  WS02006249WS02006248    1.00   0.00  0.00  0.00  0.30  0.00  0.70  0.00  0.00  0.00
  WS02006251WS02006249    1.00   0.00  0.01  0.00  0.99  0.01  0.00  0.00  0.73  0.00
  WS02006252WS02006251    1.00   0.00  0.28  0.00  0.13  0.00  0.59  0.00  0.00  0.00
  WS02006256WS02006235    1.00   0.00  0.00  0.00  0.99  0.01  0.00  0.00  0.00  0.00
  WSF200WS02003060        1.00   0.00  0.13  0.00  0.70  0.18  0.00  0.00  0.68  0.00
  YS02001580YS02001583    1.00   0.22  0.61  0.00  0.17  0.00  0.00  0.00  0.70  0.00
  YS02001583YS02001586    1.00   0.49  0.28  0.00  0.23  0.00  0.00  0.00  0.70  0.00
  YS02001586YS02001590    1.00   0.13  0.00  0.00  0.38  0.04  0.00  0.45  0.33  0.00
  YS02001590YS02001593    1.00   0.13  0.01  0.00  0.10  0.00  0.77  0.00  0.00  0.00
  YS02001593YS02001596    1.00   0.13  0.00  0.00  0.11  0.01  0.00  0.75  0.02  0.00
  YS02001596YS02001600    1.00   0.14  0.00  0.00  0.19  0.01  0.00  0.67  0.06  0.00
  YS02001600YS02001601    1.00   0.13  0.01  0.00  0.86  0.00  0.00  0.00  0.62  0.00
  YS02001601YS02001602    1.00   0.13  0.01  0.00  0.87  0.00  0.00  0.00  0.00  0.00
  YS02001602YS02001605    1.00   0.13  0.00  0.00  0.86  0.00  0.00  0.00  0.00  0.00
  YS02001605YS02001607    1.00   0.14  0.00  0.00  0.86  0.00  0.00  0.00  0.00  0.00
  YS02001607YS02001610    1.00   0.13  0.01  0.00  0.86  0.00  0.00  0.00  0.01  0.00
  YS02001610YS02001613    1.00   0.13  0.00  0.00  0.87  0.00  0.00  0.00  0.00  0.00
  YS02001613YS02001616    1.00   0.13  0.00  0.00  0.87  0.00  0.00  0.00  0.00  0.00
  YS02001616YS02001619    1.00   0.13  0.00  0.00  0.87  0.00  0.00  0.00  0.00  0.00
  YS02001619YS02001622    1.00   0.13  0.00  0.00  0.87  0.00  0.00  0.00  0.35  0.00
  YS02001622YS02001625    1.00   0.13  0.00  0.00  0.87  0.00  0.00  0.00  0.04  0.00
  YS02001625YS02001629    1.00   0.13  0.05  0.00  0.14  0.00  0.69  0.00  0.00  0.00
  YS02001629YS02163301    1.00   0.15  0.01  0.00  0.84  0.00  0.00  0.00  0.00  0.00
  YS02001633YS02163601    1.00   0.00  0.01  0.00  0.99  0.00  0.00  0.00  0.15  0.00
  YS02001641YS02001644    1.00   0.00  0.01  0.00  0.99  0.00  0.00  0.00  0.00  0.00
  YS02001644YS02001647    1.00   0.00  0.17  0.00  0.83  0.00  0.00  0.00  0.00  0.00
  YS02001647YS02001649    1.00   0.00  0.17  0.00  0.57  0.26  0.00  0.00  0.59  0.00
  YS02001649YS02001757    1.00   0.00  0.00  0.00  0.71  0.29  0.00  0.00  0.56  0.00
  YS02001652YS02001649    1.00   0.00  0.00  0.00  0.97  0.03  0.00  0.00  0.76  0.00
  YS02001655YS02001652    1.00   0.00  0.00  0.00  0.15  0.03  0.00  0.82  0.05  0.00
  YS02001658YS02001655    1.00   0.00  0.14  0.00  0.66  0.20  0.00  0.00  0.70  0.00
  YS02001661YS02001658    1.00   0.14  0.00  0.00  0.52  0.34  0.00  0.00  0.73  0.00
  YS02001664YS02001661    1.00   0.13  0.00  0.00  0.77  0.10  0.00  0.00  0.86  0.00
  YS02001745YS02001748    1.00   0.00  0.00  0.00  0.08  0.01  0.00  0.92  0.05  0.00
  YS02001748YS02001751    1.00   0.00  0.00  0.00  0.82  0.18  0.00  0.00  0.78  0.00
  YS02001751YS02001754    1.00   0.00  0.00  0.00  0.13  0.00  0.00  0.87  0.02  0.00
  YS02001754YS02001757    1.00   0.00  0.00  0.00  1.00  0.00  0.00  0.00  0.86  0.00
  YS02001757CaochengTiaoxuchi    1.00   0.00  0.00  0.00  1.00  0.00  0.00  0.00  0.85  0.00
  YS02001759YS02001757    1.00   0.00  0.00  0.00  1.00  0.00  0.00  0.00  0.63  0.00
  YS02001762YS02001759    1.00   0.00  0.00  0.00  1.00  0.00  0.00  0.00  0.04  0.00
  YS02001765YS02001762    1.00   0.00  0.00  0.00  1.00  0.00  0.00  0.00  0.75  0.00
  YS02001767YS02001765    1.00   0.00  0.00  0.00  1.00  0.00  0.00  0.00  0.00  0.00
  YS02001770YS02001767    1.00   0.00  0.00  0.00  1.00  0.00  0.00  0.00  0.00  0.00
  YS02001774YS02001770    1.00   0.00  0.13  0.00  0.60  0.00  0.27  0.00  0.03  0.00
  YS02001779YS02001774    1.00   0.00  0.00  0.00  1.00  0.00  0.00  0.00  0.80  0.00
  YS02001783YS02001784    1.00   0.00  0.18  0.00  0.82  0.00  0.00  0.00  0.58  0.00
  YS02001784YS02001785    1.00   0.00  0.00  0.00  1.00  0.00  0.00  0.00  0.17  0.00
  YS02001786YS02001788    1.00   0.00  0.00  0.00  0.80  0.20  0.00  0.00  0.00  0.00
  YS02001788YS02001790    1.00   0.00  0.00  0.00  0.21  0.79  0.00  0.00  0.83  0.00
  YS02001790YS02001791    1.00   0.00  0.00  0.00  0.01  0.99  0.00  0.00  0.16  0.00
  YS02001791YS02001793    1.00   0.00  0.00  0.00  0.00  1.00  0.00  0.00  0.01  0.00
  YS02001793JiankangQianchi    1.00   0.00  0.00  0.00  0.99  0.01  0.00  0.00  0.96  0.00
  YS02001882YS02001884    1.00   0.15  0.01  0.00  0.84  0.00  0.00  0.00  0.00  0.00
  YS02001884YS02001887    1.00   0.06  0.05  0.00  0.89  0.00  0.00  0.00  0.00  0.00
  YS02001887YS02001890    1.00   0.00  0.00  0.00  0.97  0.00  0.03  0.00  0.00  0.00
  YS02001890YS02001895    1.00   0.00  0.16  0.00  0.84  0.00  0.00  0.00  0.00  0.00
  YS02001895YS02001898    1.00   0.16  0.00  0.00  0.82  0.00  0.02  0.00  0.00  0.00
  YS02001898YS02001901    1.00   0.17  0.00  0.00  0.83  0.00  0.00  0.00  0.01  0.00
  YS02001901YS02001904    1.00   0.17  0.00  0.00  0.83  0.00  0.00  0.00  0.00  0.00
  YS02001904YS02001907    1.00   0.00  0.16  0.00  0.83  0.00  0.00  0.00  0.00  0.00
  YS02001907YS02006553    1.00   0.00  0.02  0.00  0.98  0.00  0.00  0.00  0.00  0.00
  YS02001910YS02001907    1.00   0.00  0.00  0.00  0.97  0.00  0.00  0.03  0.12  0.00
  YS02001915YS02001910    1.00   0.00  0.00  0.00  0.97  0.03  0.00  0.00  0.16  0.00
  YS02001918YS02001915    1.00   0.00  0.01  0.00  0.98  0.02  0.00  0.00  0.77  0.00
  YS02001920YS02001918    1.00   0.00  0.01  0.00  0.99  0.00  0.00  0.00  0.00  0.00
  YS02001923YS02001920    1.00   0.00  0.00  0.00  1.00  0.00  0.00  0.00  0.94  0.00
  YS02001926YS02001923    1.00   0.00  0.07  0.00  0.04  0.00  0.88  0.00  0.00  0.00
  YS02001929YS02001926    1.00   0.00  0.13  0.00  0.87  0.00  0.00  0.00  0.84  0.00
  YS02006553YS02006556    1.00   0.01  0.00  0.00  0.99  0.00  0.00  0.00  0.03  0.00
  YS02006556YS02006558    1.00   0.00  0.00  0.00  1.00  0.00  0.00  0.00  0.00  0.00
  YS02006558YS02006561    1.00   0.18  0.00  0.00  0.04  0.78  0.00  0.00  0.19  0.00
  YS02006561YS02001783    1.00   0.18  0.00  0.00  0.07  0.75  0.00  0.00  0.71  0.00
  YS02163301YS02001633    1.00   0.00  0.15  0.00  0.85  0.00  0.00  0.00  0.00  0.00
  YS02163601YS02164001    1.00   0.00  0.08  0.00  0.92  0.00  0.00  0.00  0.00  0.00
  YS02164001YS02001641    1.00   0.01  0.07  0.00  0.92  0.00  0.00  0.00  0.06  0.00
  
  
  *************************
  Conduit Surcharge Summary
  *************************
  
  ----------------------------------------------------------------------------
                                                           Hours        Hours 
                         --------- Hours Full --------   Above Full   Capacity
  Conduit                Both Ends  Upstream  Dnstream   Normal Flow   Limited
  ----------------------------------------------------------------------------
  WS02003072WS02003073        0.01      0.01      0.01      1.56         0.01
  WS02004404WS02004405        0.01      0.01      0.01      1.97         0.01
  WS02004405WS02004406        0.01      0.01      0.01      0.88         0.01
  WS02006109WS02006110        0.97      0.97      1.44      1.01         0.01
  WS02006110WS02006113        0.01      0.01      1.43      0.01         0.01
  WS02006111WS02006112        0.01      0.01      1.50      0.01         0.01
  WS02006112WS02006115        0.01      0.01      0.92      0.01         0.01
  WS02006228WS02006109        1.42      1.44      1.42      1.58         1.42
  WS02006229WS02006228        1.42      1.42      1.42      1.49         1.41
  WS02006230WS02006229        1.45      1.47      1.45      2.61         1.45
  WS02006231WS02006230        0.97      0.97      1.04      2.21         0.01
  WS02006232WS02006231        1.02      1.02      1.44      1.06         0.01
  WS02006234WS02006232        1.40      1.40      1.44      1.04         1.04
  WS02006235WS02006234        1.14      1.14      1.41      2.03         0.01
  WS02006238WS02006235        1.42      1.42      1.44      0.01         0.01
  WS02006239WS02006238        1.43      1.43      1.43      1.44         1.32
  WS02006240WS02006239        1.42      1.42      1.42      1.44         1.24
  WS02006242WS02006240        1.42      1.42      1.44      1.50         0.01
  WS02006243WS02006242        1.41      1.41      1.43      0.01         0.02
  WS02006245WS02006243        1.41      1.41      1.41      0.48         0.52
  WS02006247WS02006245        1.41      1.41      1.41      1.63         1.40
  WS02006248WS02006247        1.40      1.40      1.41      0.01         0.02
  WS02006249WS02006248        1.40      1.40      1.40      1.61         0.01
  WS02006251WS02006249        1.40      1.40      1.40      1.51         1.37
  WS02006252WS02006251        1.59      1.59      1.59      1.59         0.01
  WS02006256WS02006235        2.09      2.11      3.79      1.39         0.01
  YS02001580YS02001583        0.46      0.47      0.51      0.01         0.01
  YS02001583YS02001586        0.47      0.47      0.59      0.01         0.01
  YS02001586YS02001590        0.60      0.60      0.66      0.01         0.01
  YS02001590YS02001593        0.67      0.67      0.68      0.71         0.01
  YS02001593YS02001596        0.67      0.67      0.76      0.01         0.01
  YS02001596YS02001600        0.80      0.80      0.89      0.01         0.01
  YS02001600YS02001601        0.96      0.96      1.29      0.01         0.01
  YS02001601YS02001602        1.14      1.14      1.34      0.90         0.01
  YS02001602YS02001605        1.08      1.08      1.14      2.05         0.01
  YS02001605YS02001607        1.03      1.08      1.03      1.23         1.03
  YS02001607YS02001610        0.64      0.64      0.66      0.01         0.01
  YS02001610YS02001613        0.63      0.63      0.66      0.01         0.01
  YS02001613YS02001616        0.59      0.59      0.63      0.01         0.01
  YS02001616YS02001619        0.58      0.58      0.59      0.01         0.01
  YS02001619YS02001622        0.58      0.58      0.58      0.68         0.55
  YS02001622YS02001625        0.58      0.58      0.74      0.01         0.01
  YS02001625YS02001629        0.53      0.53      0.74      0.01         0.01
  YS02001629YS02163301        0.74      0.74      0.75      0.10         0.13
  YS02001633YS02163601        0.77      0.77      0.79      0.33         0.33
  YS02001641YS02001644        0.68      0.71      0.68      1.41         0.68
  YS02001644YS02001647        0.50      0.50      0.68      0.04         0.01
  YS02001647YS02001649        0.50      0.50      0.61      0.01         0.01
  YS02001649YS02001757        0.61      0.61      0.68      0.05         0.09
  YS02001652YS02001649        0.45      0.45      0.61      0.01         0.01
  YS02001655YS02001652        0.28      0.28      0.42      0.01         0.01
  YS02001658YS02001655        0.11      0.11      0.28      0.01         0.01
  YS02001661YS02001658        0.01      0.01      0.11      0.01         0.01
  YS02001664YS02001661        0.01      0.01      0.02      0.01         0.01
  YS02001745YS02001748        0.01      0.01      0.02      0.01         0.01
  YS02001748YS02001751        0.09      0.09      0.17      0.01         0.01
  YS02001751YS02001754        0.17      0.17      0.33      0.01         0.01
  YS02001754YS02001757        0.37      0.37      0.68      0.01         0.01
  YS02001757CaochengTiaoxuchi        0.66      0.68      1.16      0.27         0.24
  YS02001759YS02001757        0.58      0.58      0.68      0.01         0.01
  YS02001762YS02001759        0.54      0.54      0.58      0.01         0.02
  YS02001765YS02001762        0.50      0.50      0.54      0.01         0.01
  YS02001767YS02001765        0.47      0.47      0.50      0.01         0.02
  YS02001770YS02001767        0.46      0.46      0.47      0.41         0.32
  YS02001774YS02001770        0.44      0.44      0.52      0.01         0.01
  YS02001779YS02001774        0.32      0.32      0.52      0.01         0.01
  YS02001783YS02001784        0.38      0.40      0.38      0.52         0.38
  YS02001784YS02001785        0.29      0.38      0.29      0.72         0.29
  YS02001786YS02001788        0.01      0.29      0.01      0.61         0.01
  YS02001790YS02001791        0.01      0.01      0.01      0.37         0.01
  YS02001793JiankangQianchi        0.01      0.01      7.70      0.01         0.01
  YS02001882YS02001884        0.36      0.36      0.37      0.01         0.01
  YS02001884YS02001887        0.38      0.38      0.39      0.01         0.01
  YS02001887YS02001890        0.41      0.41      0.42      0.04         0.01
  YS02001890YS02001895        0.35      0.35      0.43      0.01         0.01
  YS02001895YS02001898        0.34      0.34      0.35      0.01         0.01
  YS02001898YS02001901        0.35      0.35      0.38      0.01         0.01
  YS02001901YS02001904        0.37      0.37      0.38      0.01         0.01
  YS02001904YS02001907        0.37      0.37      0.59      0.01         0.01
  YS02001907YS02006553        0.74      0.74      0.79      0.01         0.01
  YS02001910YS02001907        0.43      0.43      0.58      0.01         0.01
  YS02001915YS02001910        0.35      0.35      0.43      0.01         0.01
  YS02001918YS02001915        0.28      0.28      0.35      0.01         0.01
  YS02001920YS02001918        0.28      0.28      0.29      0.01         0.01
  YS02001923YS02001920        0.24      0.24      0.29      0.01         0.01
  YS02001926YS02001923        0.01      0.01      0.02      0.01         0.01
  YS02001929YS02001926        0.01      0.01      0.02      0.01         0.01
  YS02006553YS02006556        0.50      0.50      0.59      0.01         0.01
  YS02006556YS02006558        0.55      0.55      0.60      0.01         0.01
  YS02006558YS02006561        0.31      0.49      0.31      0.68         0.31
  YS02006561YS02001783        0.24      0.24      0.40      0.01         0.01
  YS02163301YS02001633        0.75      0.75      0.78      0.01         0.01
  YS02163601YS02164001        0.72      0.72      0.79      0.04         0.01
  YS02164001YS02001641        0.71      0.72      0.71      0.66         0.59
  
  
  ***************
  Pumping Summary
  ***************
  
  ---------------------------------------------------------------------------------------------------------
                                                  Min       Avg       Max     Total     Power    % Time Off
                        Percent   Number of      Flow      Flow      Flow    Volume     Usage    Pump Curve
  Pump                 Utilized   Start-Ups       LPS       LPS       LPS  10^6 ltr     Kw-hr    Low   High
  ---------------------------------------------------------------------------------------------------------
  CC-R1                   19.13          13      0.00    683.00    683.00     3.762     68.82    0.0   27.9
  CC-R2                   18.11          13      0.00    683.00    683.00     3.562     65.10    0.0   29.5
  CC-S1                   21.05          13      0.00    200.00    200.00     1.212      7.17    0.0    0.0
  CC-S2                   19.84          13      0.00    200.00    200.00     1.143      6.75    0.0    0.0
  JK-R1                    6.09           9      0.00   1000.00   1000.00     1.753     20.33    0.0    0.0
  JK-R2                    0.16           1      0.00   1000.00   1000.00     0.047      0.36    0.0    0.0
  JK-S                    17.32           8      0.00    300.00    300.00     1.496     22.53    0.0    0.0
  XR-1                    97.91           2      0.00     95.00     95.00     2.679      9.60    0.0    0.0
  XR-2                    93.94           2      0.00     95.00     95.00     2.570      8.76    0.0    0.0
  XR-3                     0.00           1      0.00     95.00     95.00     0.000      0.00    0.0    0.0
  XR-4                     0.00           1      0.00     95.00     95.00     0.000      0.00    0.0    0.0
  

  Analysis begun on:  Wed Nov  5 16:31:09 2025
  Analysis ended on:  Wed Nov  5 16:31:11 2025
  Total elapsed time: 00:00:02