
  EPA STORM WATER MANAGEMENT MODEL - VERSION 5.2 (Build 5.2.4)
  PYSWMM TOOLKIT API - VERSION v1.0 (2023-11-27)
  ------------------------------------------------------------

  WARNING 04: minimum elevation drop used for Conduit WS02004404WS02004405
  WARNING 03: negative offset ignored for Link YS02001904YS02001907
  
  ****************
  Analysis Options
  ****************
  Flow Units ............... LPS
  Process Models:
    Rainfall/Runoff ........ YES
    RDII ................... NO
    Snowmelt ............... NO
    Groundwater ............ NO
    Flow Routing ........... YES
    Ponding Allowed ........ NO
    Water Quality .......... NO
  Infiltration Method ...... HORTON
  Flow Routing Method ...... DYNWAVE
  Surcharge Method ......... EXTRAN
  Starting Date ............ 08/28/2015 08:00:00
  Ending Date .............. 08/28/2015 16:00:00
  Antecedent Dry Days ...... 8.0
  Report Time Step ......... 00:01:00
  Wet Time Step ............ 00:01:00
  Dry Time Step ............ 00:01:00
  Routing Time Step ........ 30.00 sec
  Variable Time Step ....... YES
  Maximum Trials ........... 8
  Number of Threads ........ 4
  Head Tolerance ........... 0.001500 m
  
  
  **************************        Volume         Depth
  Runoff Quantity Continuity     hectare-m            mm
  **************************     ---------       -------
  Initial LID Storage ......         0.049         1.488
  Total Precipitation ......         1.652        49.803
  Evaporation Loss .........         0.000         0.000
  Infiltration Loss ........         0.074         2.237
  Surface Runoff ...........         1.204        36.303
  Final Storage ............         0.423        12.767
  Continuity Error (%) .....        -0.033
  
  
  **************************        Volume        Volume
  Flow Routing Continuity        hectare-m      10^6 ltr
  **************************     ---------     ---------
  Dry Weather Inflow .......         0.602         6.020
  Wet Weather Inflow .......         1.204        12.041
  Groundwater Inflow .......         0.000         0.000
  RDII Inflow ..............         0.000         0.000
  External Inflow ..........         0.105         1.045
  External Outflow .........         1.710        17.097
  Flooding Loss ............         0.177         1.769
  Evaporation Loss .........         0.000         0.000
  Exfiltration Loss ........         0.000         0.000
  Initial Stored Volume ....         0.303         3.031
  Final Stored Volume ......         0.333         3.335
  Continuity Error (%) .....        -0.289
  
  
  *************************
  Highest Continuity Errors
  *************************
  Node YS02001583 (-12.81%)
  Node YS02001884 (4.93%)
  Node YS02001774 (2.05%)
  
  
  ***************************
  Time-Step Critical Elements
  ***************************
  Link WS02004404WS02004405 (36.84%)
  Link WS02006238WS02006235 (22.80%)
  Link YS02001791YS02001793 (7.71%)
  Link WS02006252WS02006251 (6.36%)
  Link WS02003066WSF200 (6.33%)
  
  
  ********************************
  Highest Flow Instability Indexes
  ********************************
  Link WS02006113WS02006111 (27)
  Link WS02006252WS02006251 (18)
  Link WS02006111WS02006112 (15)
  Link WS02006256WS02006235 (15)
  Link WS02006238WS02006235 (14)
  
  
  *********************************
  Most Frequent Nonconverging Nodes
  *********************************
  Node CC-1 (19.36%)
  Node CC-2 (19.36%)
  Node JK-1 (19.36%)
  Node JK-2 (19.36%)
  Node WSC (19.36%)
  
  
  *************************
  Routing Time Step Summary
  *************************
  Minimum Time Step           :     0.01 sec
  Average Time Step           :     3.60 sec
  Maximum Time Step           :     7.04 sec
  % of Time in Steady State   :     0.00
  Average Iterations per Step :     3.54
  % of Steps Not Converging   :    19.36
  Time Step Frequencies       :
     30.000 - 13.228 sec      :     0.00 %
     13.228 -  5.833 sec      :    26.68 %
      5.833 -  2.572 sec      :    37.22 %
      2.572 -  1.134 sec      :    22.35 %
      1.134 -  0.500 sec      :    13.75 %
  
  
  ***************************
  Subcatchment Runoff Summary
  ***************************
  
  ------------------------------------------------------------------------------------------------------------------------------
                            Total      Total      Total      Total     Imperv       Perv      Total       Total     Peak  Runoff
                           Precip      Runon       Evap      Infil     Runoff     Runoff     Runoff      Runoff   Runoff   Coeff
  Subcatchment                 mm         mm         mm         mm         mm         mm         mm    10^6 ltr      LPS
  ------------------------------------------------------------------------------------------------------------------------------
  sub60                     49.80       0.00       0.00       1.35      32.90       3.26      36.16        0.48   309.49   0.726
  sub61                     49.80       0.00       0.00       2.07      32.87       4.85      37.72        0.69   447.00   0.757
  sub62                     49.80       0.00       0.00       0.92      35.04       2.21      37.25        1.02   611.09   0.748
  sub63                     49.80       0.00       0.00       3.77      28.15       8.06      36.21        0.82   488.23   0.727
  sub64                     49.80       0.00       0.00       1.81      32.05       4.01      36.06        0.87   488.57   0.724
  sub65                     49.80       0.00       0.00       1.66      34.59       3.66      38.25        1.05   566.90   0.768
  sub66                     49.80       0.00       0.00       4.34      27.21       7.11      34.32        1.60   708.20   0.689
  sub67                     49.80       0.00       0.00       0.92      35.92       2.29      38.22        0.71   486.00   0.767
  sub68                     49.80       0.00       0.00       1.59      31.73       3.72      35.45        0.98   606.47   0.712
  sub69                     49.80       0.00       0.00       1.43      33.47       4.49      37.96        1.41   739.78   0.762
  sub70                     49.80       0.00       0.00       4.72      26.80       9.14      35.94        1.04   411.11   0.722
  sub71                     49.80       0.00       0.00       0.85      31.82       2.00      33.83        0.88   499.34   0.679
  sub72                     49.80       0.00       0.00       0.81      34.37       1.86      36.23        0.50   253.27   0.727
  

  ***********************
  LID Performance Summary
  ***********************

  --------------------------------------------------------------------------------------------------------------------
                                         Total      Evap     Infil   Surface    Drain    Initial     Final  Continuity
                                        Inflow      Loss      Loss   Outflow   Outflow   Storage   Storage       Error
  Subcatchment      LID Control             mm        mm        mm        mm        mm        mm        mm           %
  --------------------------------------------------------------------------------------------------------------------
  sub60             GreenRoof            49.80      0.00      0.00      0.00      0.00      7.05     56.89       -0.07
  sub61             GreenRoof            49.80      0.00      0.00      0.00      0.00      7.05     56.89       -0.07
  sub62             GreenRoof            49.80      0.00      0.00      0.00      0.00      7.05     56.89       -0.07
  sub63             GreenRoof            49.80      0.00      0.00      0.00      0.00      7.05     56.89       -0.07
  sub64             GreenRoof            49.80      0.00      0.00      0.00      0.00      7.05     56.89       -0.07
  sub65             GreenRoof            49.80      0.00      0.00      0.00      0.00      7.05     56.89       -0.07
  sub66             GreenRoof            49.80      0.00      0.00      0.00      0.00      7.05     56.89       -0.07
  sub67             GreenRoof            49.80      0.00      0.00      0.00      0.00      7.05     56.89       -0.07
  sub68             GreenRoof            49.80      0.00      0.00      0.00      0.00      7.05     56.89       -0.07
  sub69             GreenRoof            49.80      0.00      0.00      0.00      0.00      7.05     56.89       -0.07
  sub70             GreenRoof            49.80      0.00      0.00      0.00      0.00      7.05     56.89       -0.07
  sub71             GreenRoof            49.80      0.00      0.00      0.00      0.00      7.05     56.89       -0.07
  sub72             GreenRoof            49.80      0.00      0.00      0.00      0.00      7.05     56.89       -0.07
  
  ******************
  Node Depth Summary
  ******************
  
  ---------------------------------------------------------------------------------
                                 Average  Maximum  Maximum  Time of Max    Reported
                                   Depth    Depth      HGL   Occurrence   Max Depth
  Node                 Type       Meters   Meters   Meters  days hr:min      Meters
  ---------------------------------------------------------------------------------
  WS02001211           JUNCTION     0.60     0.64     5.48     0  02:45        0.64
  WS02001212           JUNCTION     0.33     0.38     5.45     0  02:44        0.38
  WS02001213           JUNCTION     0.52     0.65     5.41     0  02:44        0.65
  WS02003059           JUNCTION     0.59     0.72     5.40     0  02:43        0.72
  WS02003060           JUNCTION     0.29     0.45     5.38     0  02:43        0.45
  WS02003066           JUNCTION     0.15     0.30     5.85     0  02:41        0.30
  WS02003067           JUNCTION     0.42     0.70     6.02     0  02:41        0.70
  WS02003069           JUNCTION     0.33     0.51     5.10     0  02:43        0.51
  WS02003072           JUNCTION     0.39     0.57     4.95     0  02:44        0.57
  WS02003073           JUNCTION     0.23     0.35     4.41     0  02:44        0.35
  WS02004138           JUNCTION     0.13     0.14     7.39     0  00:29        0.14
  WS02004139           JUNCTION     0.54     0.58     5.49     0  02:46        0.58
  WS02004401           JUNCTION     0.51     0.85     6.85     0  02:38        0.85
  WS02004402           JUNCTION     0.54     0.88     6.84     0  02:39        0.88
  WS02004403           JUNCTION     0.56     0.89     6.82     0  02:39        0.89
  WS02004404           JUNCTION     0.64     0.96     6.81     0  02:39        0.96
  WS02004405           JUNCTION     0.64     0.96     6.81     0  02:39        0.95
  WS02004406           JUNCTION     0.65     0.96     6.79     0  02:39        0.96
  WS02004407           JUNCTION     0.13     0.30     6.61     0  02:39        0.30
  WS02004409           JUNCTION     0.30     0.67     6.44     0  02:41        0.67
  WS02004410           JUNCTION     0.33     0.68     6.40     0  02:41        0.68
  WS02004411           JUNCTION     0.35     0.69     6.37     0  02:41        0.69
  WS02004412           JUNCTION     0.37     0.70     6.34     0  02:42        0.70
  WS02004413           JUNCTION     0.53     0.86     6.33     0  02:41        0.86
  WS02006109           JUNCTION     0.56     1.17     7.79     0  02:55        1.17
  WS02006110           JUNCTION     0.56     1.19     7.77     0  02:18        1.12
  WS02006111           JUNCTION     0.14     0.29     7.00     0  02:29        0.29
  WS02006112           JUNCTION     0.65     1.08     6.96     0  02:28        1.05
  WS02006113           JUNCTION     0.21     0.46     7.36     0  02:29        0.46
  WS02006115           JUNCTION     0.39     0.75     6.89     0  02:38        0.75
  WS02006116           JUNCTION     0.48     0.83     6.87     0  02:38        0.83
  WS02006228           JUNCTION     0.55     1.16     7.81     0  02:55        1.16
  WS02006229           JUNCTION     0.52     1.17     7.87     0  02:12        1.13
  WS02006230           JUNCTION     0.51     1.36     8.10     0  02:12        1.12
  WS02006231           JUNCTION     0.33     1.47     8.59     0  02:12        1.03
  WS02006232           JUNCTION     0.45     1.40     8.43     0  02:12        1.24
  WS02006234           JUNCTION     0.37     1.92     9.07     0  02:00        1.44
  WS02006235           JUNCTION     0.41     1.91     9.08     0  02:22        1.57
  WS02006238           JUNCTION     0.44     1.99     9.13     0  02:22        1.64
  WS02006239           JUNCTION     0.40     1.96     9.17     0  02:22        1.56
  WS02006240           JUNCTION     0.37     1.82     9.11     0  02:22        1.65
  WS02006242           JUNCTION     0.43     1.55     8.82     0  02:00        1.55
  WS02006243           JUNCTION     0.36     1.48     8.90     0  02:29        1.48
  WS02006245           JUNCTION     0.36     1.44     8.92     0  02:29        1.44
  WS02006247           JUNCTION     0.38     1.32     8.82     0  02:29        1.32
  WS02006248           JUNCTION     0.35     1.10     8.69     0  01:55        1.10
  WS02006249           JUNCTION     0.37     1.09     8.69     0  01:54        1.09
  WS02006251           JUNCTION     0.37     1.60     9.27     0  01:55        1.54
  WS02006252           JUNCTION     0.24     1.50     9.74     0  00:00        1.13
  WS02006256           JUNCTION     0.97     2.35     9.28     0  00:00        2.35
  WSF200               JUNCTION     0.13     0.31     5.54     0  02:41        0.31
  YS02001580           JUNCTION     0.11     1.05     9.59     0  01:48        0.77
  YS02001583           JUNCTION     0.14     1.14     9.64     0  01:48        0.82
  YS02001586           JUNCTION     0.23     1.13     9.30     0  01:47        1.13
  YS02001590           JUNCTION     0.34     1.40     9.26     0  01:46        1.37
  YS02001593           JUNCTION     0.27     1.39     9.25     0  01:47        1.29
  YS02001596           JUNCTION     0.38     1.73     9.15     0  01:47        1.65
  YS02001600           JUNCTION     0.46     1.87     9.00     0  01:47        1.87
  YS02001601           JUNCTION     0.65     2.06     8.90     0  01:46        2.06
  YS02001602           JUNCTION     0.55     1.87     8.77     0  01:47        1.87
  YS02001605           JUNCTION     0.51     1.78     8.68     0  01:47        1.78
  YS02001607           JUNCTION     0.48     1.68     8.53     0  01:47        1.64
  YS02001610           JUNCTION     0.52     1.68     8.48     0  01:47        1.68
  YS02001613           JUNCTION     0.48     1.70     8.54     0  01:47        1.65
  YS02001616           JUNCTION     0.42     1.61     8.52     0  01:47        1.60
  YS02001619           JUNCTION     0.39     1.61     8.54     0  01:47        1.61
  YS02001622           JUNCTION     0.38     1.62     8.52     0  01:48        1.58
  YS02001625           JUNCTION     0.64     1.78     8.38     0  01:48        1.78
  YS02001629           JUNCTION     0.51     1.85     8.40     0  01:48        1.85
  YS02001633           JUNCTION     0.59     2.06     8.51     0  01:50        1.98
  YS02001641           JUNCTION     0.55     1.98     8.42     0  01:50        1.90
  YS02001644           JUNCTION     0.54     1.92     8.35     0  01:50        1.87
  YS02001647           JUNCTION     0.32     1.66     8.27     0  01:52        1.61
  YS02001649           JUNCTION     0.37     1.90     8.29     0  01:50        1.74
  YS02001652           JUNCTION     0.25     2.16     8.76     0  01:50        1.54
  YS02001655           JUNCTION     0.18     2.20     9.05     0  01:50        1.29
  YS02001658           JUNCTION     0.12     1.39     8.53     0  01:52        1.00
  YS02001661           JUNCTION     0.14     0.79     8.19     0  01:52        0.74
  YS02001664           JUNCTION     0.06     0.26     8.19     0  01:51        0.26
  YS02001745           JUNCTION     0.06     0.52     8.04     0  01:51        0.47
  YS02001748           JUNCTION     0.11     0.98     8.06     0  01:52        0.95
  YS02001751           JUNCTION     0.15     1.46     8.34     0  01:51        1.14
  YS02001754           JUNCTION     0.21     1.58     8.19     0  01:51        1.40
  YS02001757           JUNCTION     0.37     1.74     8.00     0  01:52        1.73
  YS02001759           JUNCTION     0.32     1.70     8.06     0  01:53        1.69
  YS02001762           JUNCTION     0.31     1.85     8.25     0  01:50        1.68
  YS02001765           JUNCTION     0.29     1.85     8.30     0  01:50        1.65
  YS02001767           JUNCTION     0.28     2.03     8.52     0  01:50        1.64
  YS02001770           JUNCTION     0.30     1.95     8.44     0  01:50        1.68
  YS02001774           JUNCTION     0.36     1.98     8.40     0  01:50        1.76
  YS02001779           JUNCTION     0.19     1.68     8.37     0  01:50        1.49
  YS02001783           JUNCTION     0.27     1.54     7.68     0  01:50        1.22
  YS02001784           JUNCTION     0.29     1.28     7.35     0  01:50        1.10
  YS02001786           JUNCTION     0.24     1.00     7.03     0  01:50        0.86
  YS02001788           JUNCTION     0.17     0.62     6.60     0  01:50        0.61
  YS02001790           JUNCTION     0.21     0.72     6.36     0  01:53        0.70
  YS02001791           JUNCTION     0.13     0.43     5.90     0  01:51        0.42
  YS02001793           JUNCTION     0.07     0.29     5.12     0  01:51        0.28
  YS02001882           JUNCTION     0.34     1.83     8.55     0  01:48        1.63
  YS02001884           JUNCTION     0.42     1.93     8.55     0  01:49        1.73
  YS02001887           JUNCTION     0.50     1.95     8.49     0  01:49        1.80
  YS02001890           JUNCTION     0.53     1.81     8.32     0  01:49        1.81
  YS02001895           JUNCTION     0.31     1.75     8.50     0  01:49        1.57
  YS02001898           JUNCTION     0.31     1.77     8.51     0  01:49        1.57
  YS02001901           JUNCTION     0.42     1.87     8.48     0  01:49        1.67
  YS02001904           JUNCTION     0.40     1.85     8.48     0  01:49        1.63
  YS02001907           JUNCTION     0.71     1.96     8.25     0  01:49        1.96
  YS02001910           JUNCTION     0.52     2.03     8.53     0  01:49        1.94
  YS02001915           JUNCTION     0.33     2.00     8.72     0  01:49        1.89
  YS02001918           JUNCTION     0.17     1.81     8.88     0  01:50        1.81
  YS02001920           JUNCTION     0.25     2.11     9.12     0  01:50        1.93
  YS02001923           JUNCTION     0.13     2.03     9.29     0  01:50        1.74
  YS02001926           JUNCTION     0.16     1.90     9.35     0  01:50        1.59
  YS02001929           JUNCTION     0.09     1.78     9.47     0  01:50        1.37
  YS02006553           JUNCTION     0.72     2.06     8.35     0  01:50        1.96
  YS02006556           JUNCTION     0.69     2.14     8.45     0  01:50        1.92
  YS02006558           JUNCTION     0.73     2.20     8.47     0  01:50        1.95
  YS02006561           JUNCTION     0.17     1.38     8.04     0  01:50        0.88
  YS02163301           JUNCTION     0.54     1.94     8.46     0  01:50        1.91
  YS02163601           JUNCTION     0.62     2.08     8.48     0  01:50        2.00
  YS02164001           JUNCTION     0.54     2.01     8.46     0  01:50        1.91
  CC-1                 OUTFALL      0.00     0.00     0.00     0  00:00        0.00
  CC-2                 OUTFALL      0.00     0.00     0.00     0  00:00        0.00
  JK-1                 OUTFALL      0.00     0.00     0.00     0  00:00        0.00
  JK-2                 OUTFALL      0.00     0.00     0.00     0  00:00        0.00
  WSC                  OUTFALL      0.23     0.35     1.02     0  02:45        0.35
  CC-storage           STORAGE      0.78     1.48     6.98     0  02:12        1.48
  JK-storage           STORAGE      3.02     4.23     5.03     0  02:06        4.20
  XR-storage           STORAGE      7.83     9.26     7.26     0  08:00        9.26
  
  
  *******************
  Node Inflow Summary
  *******************
  
  -------------------------------------------------------------------------------------------------
                                  Maximum  Maximum                  Lateral       Total        Flow
                                  Lateral    Total  Time of Max      Inflow      Inflow     Balance
                                   Inflow   Inflow   Occurrence      Volume      Volume       Error
  Node                 Type           LPS      LPS  days hr:min    10^6 ltr    10^6 ltr     Percent
  -------------------------------------------------------------------------------------------------
  WS02001211           JUNCTION      7.35   200.43     0  02:48       0.212        5.44       0.611
  WS02001212           JUNCTION      0.00   203.31     0  03:19           0        5.41       0.290
  WS02001213           JUNCTION      0.00   205.33     0  03:20           0        5.39       0.331
  WS02003059           JUNCTION      0.00   210.74     0  03:22           0        5.38       0.592
  WS02003060           JUNCTION     16.53   748.67     0  02:43       0.476        8.84       0.160
  WS02003066           JUNCTION      0.00   535.82     0  02:41           0        3.01       0.042
  WS02003067           JUNCTION      0.00   535.78     0  02:41           0        3.02       0.135
  WS02003069           JUNCTION      0.32   748.68     0  02:43     0.00922        8.82       0.169
  WS02003072           JUNCTION      0.00   748.61     0  02:43           0        8.81       0.231
  WS02003073           JUNCTION      1.82   750.40     0  02:44      0.0524        8.84       0.238
  WS02004138           JUNCTION      0.00   380.00     0  00:00           0        5.25       0.053
  WS02004139           JUNCTION      0.32   191.16     0  00:29     0.00924        5.26       0.509
  WS02004401           JUNCTION      0.00   541.74     0  02:30           0        3.11       0.319
  WS02004402           JUNCTION      0.00   537.14     0  02:37           0         3.1       0.326
  WS02004403           JUNCTION      0.00   537.49     0  02:39           0        3.09       0.319
  WS02004404           JUNCTION      0.16   537.04     0  02:39     0.00467        3.09       0.274
  WS02004405           JUNCTION      0.04   536.83     0  02:39      0.0011        3.08       0.392
  WS02004406           JUNCTION      0.00   537.25     0  02:39           0        3.07       0.665
  WS02004407           JUNCTION      0.00   536.72     0  02:39           0        3.05       0.031
  WS02004409           JUNCTION      0.00   536.53     0  02:39           0        3.05       0.078
  WS02004410           JUNCTION      0.00   536.25     0  02:40           0        3.05       0.133
  WS02004411           JUNCTION      0.00   536.04     0  02:40           0        3.04       0.173
  WS02004412           JUNCTION      0.00   535.94     0  02:40           0        3.04       0.236
  WS02004413           JUNCTION      0.00   535.89     0  02:41           0        3.03       0.422
  WS02006109           JUNCTION      1.23   562.85     0  02:29      0.0354        3.16       0.263
  WS02006110           JUNCTION      0.00   564.84     0  02:29           0        3.15       0.196
  WS02006111           JUNCTION      0.00   572.97     0  02:29           0        3.14       0.025
  WS02006112           JUNCTION      0.00   556.55     0  02:29           0        3.14       0.551
  WS02006113           JUNCTION      0.00   572.72     0  02:29           0        3.14       0.050
  WS02006115           JUNCTION      0.00   557.29     0  03:07           0        3.12       0.199
  WS02006116           JUNCTION      0.00   546.24     0  02:29           0        3.12       0.071
  WS02006228           JUNCTION      0.00   559.48     0  02:29           0        3.12       0.115
  WS02006229           JUNCTION      0.00   559.39     0  02:29           0        3.13       0.167
  WS02006230           JUNCTION     10.28   604.48     0  02:56       0.296        3.13       0.135
  WS02006231           JUNCTION      0.00   582.13     0  02:56           0        2.83      -0.163
  WS02006232           JUNCTION      0.00   579.35     0  02:56           0        2.85       0.426
  WS02006234           JUNCTION      0.00   590.63     0  01:55           0        2.84      -0.343
  WS02006235           JUNCTION      0.00   583.31     0  01:55           0        2.93       0.314
  WS02006238           JUNCTION      0.00   425.77     0  02:15           0        2.12      -0.177
  WS02006239           JUNCTION      0.00   424.82     0  02:15           0        2.07      -0.073
  WS02006240           JUNCTION      0.00   422.48     0  02:15           0        2.03      -0.066
  WS02006242           JUNCTION      0.00   422.29     0  02:15           0        1.99      -0.155
  WS02006243           JUNCTION      0.00   421.65     0  02:15           0        1.97      -0.114
  WS02006245           JUNCTION      0.00   421.41     0  02:15           0        1.98       0.527
  WS02006247           JUNCTION      0.00   420.78     0  02:15           0        1.97      -0.056
  WS02006248           JUNCTION      0.00   420.66     0  02:15           0        1.97      -0.268
  WS02006249           JUNCTION      0.00   468.27     0  03:15           0        2.15       0.846
  WS02006251           JUNCTION      0.08   407.31     0  01:55     0.00222        2.15       0.010
  WS02006252           JUNCTION      0.00   400.00     0  00:00           0        2.14      -0.389
  WS02006256           JUNCTION      0.00   300.00     0  00:00           0        1.21      -0.975
  WSF200               JUNCTION      0.00   535.85     0  02:41           0        3.01       0.016
  YS02001580           JUNCTION      0.00   172.25     0  01:47           0     0.00471       2.167
  YS02001583           JUNCTION      0.00   267.83     0  01:48           0      0.0148     -11.358
  YS02001586           JUNCTION    411.11   411.14     0  01:53        1.04        1.05       0.161
  YS02001590           JUNCTION      0.00   317.90     0  01:52           0       0.985      -0.047
  YS02001593           JUNCTION      0.00   317.93     0  02:01           0       0.985       0.009
  YS02001596           JUNCTION      0.00   317.91     0  02:01           0       0.985      -0.003
  YS02001600           JUNCTION      0.00   318.05     0  01:51           0       0.985       0.006
  YS02001601           JUNCTION    739.78  1057.40     0  01:51        1.41        2.39       0.015
  YS02001602           JUNCTION      0.00   571.83     0  01:47           0        1.83       0.017
  YS02001605           JUNCTION      0.00   571.83     0  01:47           0        1.76       0.009
  YS02001607           JUNCTION      0.00   571.74     0  01:47           0        1.76       0.098
  YS02001610           JUNCTION      0.00   550.59     0  01:47           0        1.76       0.117
  YS02001613           JUNCTION      0.00   557.30     0  01:47           0        1.62       0.092
  YS02001616           JUNCTION      0.00   574.44     0  01:47           0        1.62       0.013
  YS02001619           JUNCTION    708.20  1000.90     0  01:48         1.6        3.22      -0.010
  YS02001622           JUNCTION      0.00   990.13     0  01:48           0        3.22      -0.014
  YS02001625           JUNCTION      0.00   966.06     0  01:48           0        3.22       0.271
  YS02001629           JUNCTION      0.00   963.66     0  01:48           0        2.98       0.019
  YS02001633           JUNCTION    567.10  1427.13     0  01:49        1.06        4.03       0.082
  YS02001641           JUNCTION      0.00  1427.22     0  01:49           0        4.03       0.069
  YS02001644           JUNCTION    488.61  1881.51     0  01:49       0.867        4.89       0.065
  YS02001647           JUNCTION      0.00  1881.69     0  01:49           0        4.88       0.010
  YS02001649           JUNCTION      0.00  2161.09     0  01:49           0        5.71       0.011
  YS02001652           JUNCTION      0.00   549.02     0  01:53           0       0.828      -0.098
  YS02001655           JUNCTION      0.15   576.68     0  01:50     0.00443       0.827      -0.123
  YS02001658           JUNCTION      0.00   654.00     0  01:58           0       0.822      -0.130
  YS02001661           JUNCTION      0.00   488.17     0  01:51           0       0.822       0.058
  YS02001664           JUNCTION    488.23   488.23     0  01:51       0.822       0.822      -0.016
  YS02001745           JUNCTION    309.49   309.49     0  01:50       0.475       0.475       0.313
  YS02001748           JUNCTION      0.04   516.15     0  01:53      0.0013       0.476      -0.430
  YS02001751           JUNCTION      0.01   451.94     0  01:54    0.000317       0.483       0.105
  YS02001754           JUNCTION      0.26   374.21     0  01:52     0.00749       0.496      -0.282
  YS02001757           JUNCTION      0.00  3066.77     0  01:52           0        7.93       0.046
  YS02001759           JUNCTION    447.04  1078.31     0  01:50       0.693        1.73      -0.005
  YS02001762           JUNCTION      0.00   630.99     0  01:50           0        1.04       0.020
  YS02001765           JUNCTION      0.00   629.90     0  01:50           0        1.04       0.027
  YS02001767           JUNCTION      0.54   629.45     0  01:50      0.0154        1.04       0.022
  YS02001770           JUNCTION    611.25   626.23     0  01:50        1.02        1.07       0.000
  YS02001774           JUNCTION      0.00   437.12     0  01:50           0      0.0645       2.098
  YS02001779           JUNCTION      0.01   442.73     0  01:50    0.000144      0.0213      -1.242
  YS02001783           JUNCTION      0.00  1148.72     0  01:51           0        2.93       0.005
  YS02001784           JUNCTION      1.06  1149.92     0  01:51      0.0305        2.96       0.017
  YS02001786           JUNCTION      0.06  1150.43     0  01:51     0.00162        2.97       0.023
  YS02001788           JUNCTION      0.07  1151.66     0  01:51     0.00204        2.97       0.010
  YS02001790           JUNCTION      0.15  1165.95     0  01:50     0.00446        2.97       0.020
  YS02001791           JUNCTION      0.00  1274.73     0  01:51           0        2.97      -0.015
  YS02001793           JUNCTION      0.00  1239.85     0  01:52           0        2.97       0.007
  YS02001882           JUNCTION      0.00    91.01     0  01:48           0      0.0124       3.912
  YS02001884           JUNCTION      0.00   137.54     0  01:48           0      0.0479       5.183
  YS02001887           JUNCTION    486.45   514.61     0  01:48       0.724       0.757       0.565
  YS02001890           JUNCTION      0.00   518.31     0  01:48           0       0.716       0.708
  YS02001895           JUNCTION      0.00   520.90     0  01:48           0       0.711       0.214
  YS02001898           JUNCTION      0.00   500.39     0  01:49           0       0.709       0.006
  YS02001901           JUNCTION      0.00   511.77     0  01:49           0       0.712       0.453
  YS02001904           JUNCTION      0.00   512.56     0  01:49           0       0.716       0.370
  YS02001907           JUNCTION      0.00  1400.91     0  01:51           0        2.17       0.824
  YS02001910           JUNCTION      0.00   951.86     0  01:51           0        1.46       0.484
  YS02001915           JUNCTION    499.36   951.31     0  01:51       0.885        1.51       0.100
  YS02001918           JUNCTION      0.00   491.98     0  01:49           0       0.659       0.035
  YS02001920           JUNCTION      2.87   452.67     0  01:51      0.0827       0.637       0.130
  YS02001923           JUNCTION      0.04   530.95     0  01:49     0.00109       0.538      -0.140
  YS02001926           JUNCTION      0.05   814.48     0  01:50      0.0015       0.518      -0.352
  YS02001929           JUNCTION    253.27   680.87     0  01:50       0.498       0.503       0.012
  YS02006553           JUNCTION      0.00   788.10     0  02:01           0        1.98       0.599
  YS02006556           JUNCTION      0.00   788.58     0  02:01           0        1.99       0.388
  YS02006558           JUNCTION    607.35  1161.27     0  01:50           1        2.96       0.114
  YS02006561           JUNCTION      0.00  1160.83     0  01:50           0        2.93      -0.001
  YS02163301           JUNCTION      0.00   913.45     0  01:49           0        2.98       0.047
  YS02163601           JUNCTION      0.11  1427.40     0  01:49     0.00317        4.03       0.119
  YS02164001           JUNCTION      0.00  1427.50     0  01:49           0        4.03       0.059
  CC-1                 OUTFALL       0.00   683.00     0  00:00           0        3.39       0.000
  CC-2                 OUTFALL       0.00   683.00     0  00:00           0        3.14       0.000
  JK-1                 OUTFALL       0.00  1000.00     0  00:00           0         1.7       0.000
  JK-2                 OUTFALL       0.00  1000.00     0  00:00           0      0.0484       0.000
  WSC                  OUTFALL       0.00   750.28     0  02:45           0        8.82       0.000
  CC-storage           STORAGE       0.00  3071.74     0  01:52           0        10.2      -0.255
  JK-storage           STORAGE       0.00  1204.88     0  01:52           0        3.12       0.037
  XR-storage           STORAGE     200.00   200.00     0  00:00        5.76        6.36       0.001
  
  
  **********************
  Node Surcharge Summary
  **********************
  
  Surcharging occurs when water rises above the top of the highest conduit.
  ---------------------------------------------------------------------
                                               Max. Height   Min. Depth
                                   Hours       Above Crown    Below Rim
  Node                 Type      Surcharged         Meters       Meters
  ---------------------------------------------------------------------
  WS02006109           JUNCTION        1.27          0.348        1.472
  WS02006110           JUNCTION        0.50          0.279        1.571
  WS02006112           JUNCTION        0.55          0.078        1.602
  WS02006228           JUNCTION        1.27          0.330        1.870
  WS02006229           JUNCTION        1.27          0.372        2.078
  WS02006230           JUNCTION        0.52          0.276        1.294
  WS02006231           JUNCTION        0.67          0.755        0.775
  WS02006232           JUNCTION        1.28          0.696        0.784
  WS02006234           JUNCTION        0.97          1.196        0.044
  WS02006235           JUNCTION        1.24          1.204        0.086
  WS02006238           JUNCTION        1.27          1.269        0.161
  WS02006239           JUNCTION        1.26          1.222        0.068
  WS02006240           JUNCTION        1.26          1.107        0.283
  WS02006242           JUNCTION        1.26          0.820        0.000
  WS02006243           JUNCTION        1.25          0.770        0.000
  WS02006245           JUNCTION        1.24          0.727        0.123
  WS02006247           JUNCTION        1.24          0.613        0.147
  WS02006248           JUNCTION        1.23          0.380        0.000
  WS02006249           JUNCTION        1.23          0.390        0.000
  WS02006251           JUNCTION        0.73          0.567        0.613
  WS02006252           JUNCTION        1.44          1.100        0.000
  WS02006256           JUNCTION        4.06          2.050        0.000
  YS02001580           JUNCTION        0.34          0.450        0.000
  YS02001583           JUNCTION        0.35          0.500        0.000
  YS02001586           JUNCTION        0.48          0.510        0.000
  YS02001590           JUNCTION        0.54          0.750        0.000
  YS02001593           JUNCTION        0.54          0.766        0.074
  YS02001596           JUNCTION        0.63          1.001        0.069
  YS02001600           JUNCTION        0.76          1.190        0.000
  YS02001601           JUNCTION        1.14          1.440        0.000
  YS02001602           JUNCTION        1.00          1.270        0.000
  YS02001605           JUNCTION        0.94          1.180        0.000
  YS02001607           JUNCTION        0.51          0.680        0.000
  YS02001610           JUNCTION        0.53          0.680        0.000
  YS02001613           JUNCTION        0.50          0.700        0.000
  YS02001616           JUNCTION        0.47          0.610        0.000
  YS02001619           JUNCTION        0.45          0.610        0.000
  YS02001622           JUNCTION        0.45          0.620        0.000
  YS02001625           JUNCTION        0.61          0.780        0.000
  YS02001629           JUNCTION        0.40          0.470        0.000
  YS02001633           JUNCTION        0.62          1.038        0.022
  YS02001641           JUNCTION        0.56          0.983        0.117
  YS02001644           JUNCTION        0.54          0.920        0.000
  YS02001647           JUNCTION        0.35          0.663        0.237
  YS02001649           JUNCTION        0.45          0.898        0.152
  YS02001652           JUNCTION        0.29          1.130        0.000
  YS02001655           JUNCTION        0.14          1.200        0.000
  YS02001658           JUNCTION        0.02          0.386        0.914
  YS02001751           JUNCTION        0.04          0.463        0.737
  YS02001754           JUNCTION        0.19          0.528        0.622
  YS02001757           JUNCTION        0.51          0.742        0.468
  YS02001759           JUNCTION        0.41          0.701        0.509
  YS02001762           JUNCTION        0.38          0.849        0.301
  YS02001765           JUNCTION        0.34          0.854        0.246
  YS02001767           JUNCTION        0.32          1.030        0.000
  YS02001770           JUNCTION        0.29          0.920        0.000
  YS02001774           JUNCTION        0.37          0.975        0.075
  YS02001779           JUNCTION        0.19          0.680        0.000
  YS02001783           JUNCTION        0.32          0.744        0.856
  YS02001784           JUNCTION        0.30          0.482        1.008
  YS02001786           JUNCTION        0.21          0.205        1.225
  YS02001882           JUNCTION        0.28          0.830        0.000
  YS02001884           JUNCTION        0.29          0.870        0.000
  YS02001887           JUNCTION        0.32          0.900        0.050
  YS02001890           JUNCTION        0.33          0.760        0.000
  YS02001895           JUNCTION        0.27          0.750        0.000
  YS02001898           JUNCTION        0.26          0.740        0.000
  YS02001901           JUNCTION        0.30          0.870        0.000
  YS02001904           JUNCTION        0.30          0.850        0.000
  YS02001907           JUNCTION        0.49          0.950        0.000
  YS02001910           JUNCTION        0.35          1.027        0.073
  YS02001915           JUNCTION        0.27          1.000        0.000
  YS02001918           JUNCTION        0.20          0.810        0.000
  YS02001920           JUNCTION        0.21          1.108        0.032
  YS02001923           JUNCTION        0.01          0.820        0.000
  YS02001926           JUNCTION        0.01          0.900        0.000
  YS02001929           JUNCTION        0.01          0.780        0.000
  YS02006553           JUNCTION        0.49          1.062        0.128
  YS02006556           JUNCTION        0.42          1.099        0.251
  YS02006558           JUNCTION        0.41          1.100        0.300
  YS02006561           JUNCTION        0.17          0.582        0.568
  YS02163301           JUNCTION        0.61          0.940        0.090
  YS02163601           JUNCTION        0.65          1.080        0.000
  YS02164001           JUNCTION        0.57          1.006        0.094
  
  
  *********************
  Node Flooding Summary
  *********************
  
  Flooding refers to all water that overflows a node, whether it ponds or not.
  --------------------------------------------------------------------------
                                                             Total   Maximum
                                 Maximum   Time of Max       Flood    Ponded
                        Hours       Rate    Occurrence      Volume     Depth
  Node                 Flooded       LPS   days hr:min    10^6 ltr    Meters
  --------------------------------------------------------------------------
  WS02006242              0.01     21.37      0  02:22       0.000     0.000
  WS02006243              0.01      0.13      0  02:29       0.000     0.000
  WS02006248              0.01     25.95      0  02:00       0.000     0.000
  WS02006249              0.69    104.58      0  01:55       0.162     0.000
  WS02006252              0.01    245.63      0  00:00       0.000     0.000
  WS02006256              1.12    293.19      0  00:00       0.353     0.000
  YS02001580              0.01    114.48      0  01:48       0.001     0.000
  YS02001583              0.01    241.22      0  01:48       0.000     0.000
  YS02001586              0.24    137.26      0  01:48       0.053     0.000
  YS02001590              0.01    123.31      0  01:46       0.000     0.000
  YS02001600              0.01      4.42      0  01:47       0.000     0.000
  YS02001601              0.41    659.59      0  01:51       0.564     0.000
  YS02001602              0.32     62.02      0  01:58       0.063     0.000
  YS02001605              0.01      6.91      0  01:47       0.000     0.000
  YS02001607              0.01     50.58      0  01:47       0.000     0.000
  YS02001610              0.27    220.98      0  01:53       0.136     0.000
  YS02001613              0.01     22.64      0  01:47       0.000     0.000
  YS02001616              0.01    101.46      0  01:47       0.000     0.000
  YS02001619              0.01    213.74      0  01:47       0.000     0.000
  YS02001622              0.01    325.08      0  01:48       0.001     0.000
  YS02001625              0.23    609.79      0  01:53       0.236     0.000
  YS02001629              0.02    375.53      0  01:48       0.003     0.000
  YS02001644              0.01     12.86      0  01:50       0.000     0.000
  YS02001652              0.01     70.19      0  01:50       0.000     0.000
  YS02001655              0.01    274.69      0  01:50       0.000     0.000
  YS02001767              0.01    174.79      0  01:50       0.000     0.000
  YS02001770              0.01    268.93      0  01:50       0.000     0.000
  YS02001779              0.01    400.77      0  01:50       0.003     0.000
  YS02001882              0.01     62.95      0  01:49       0.000     0.000
  YS02001884              0.01      4.76      0  01:49       0.000     0.000
  YS02001890              0.01    119.52      0  01:49       0.001     0.000
  YS02001895              0.01     72.23      0  01:49       0.000     0.000
  YS02001898              0.01    201.93      0  01:49       0.000     0.000
  YS02001901              0.01     14.31      0  01:49       0.000     0.000
  YS02001904              0.01     82.38      0  01:49       0.000     0.000
  YS02001907              0.14    847.57      0  01:51       0.185     0.000
  YS02001915              0.01    203.58      0  01:49       0.000     0.000
  YS02001918              0.01    195.28      0  01:50       0.002     0.000
  YS02001923              0.01    294.56      0  01:50       0.001     0.000
  YS02001926              0.01    442.81      0  01:50       0.002     0.000
  YS02001929              0.01    171.05      0  01:50       0.001     0.000
  YS02163601              0.01      3.72      0  01:50       0.000     0.000
  
  
  **********************
  Storage Volume Summary
  **********************
  
  ------------------------------------------------------------------------------------------------
                         Average    Avg   Evap  Exfil     Maximum    Max    Time of Max    Maximum
                          Volume   Pcnt   Pcnt   Pcnt      Volume   Pcnt     Occurrence    Outflow
  Storage Unit           1000 m³   Full   Loss   Loss     1000 m³   Full    days hr:min        LPS
  ------------------------------------------------------------------------------------------------
  CC-storage               2.183   34.1    0.0    0.0       4.119   64.3       0  02:12    1783.53
  JK-storage               0.152   52.0    0.0    0.0       0.212   72.9       0  02:06    2300.00
  XR-storage               0.940   65.3    0.0    0.0       1.111   77.2       0  08:00     380.00
  
  
  ***********************
  Outfall Loading Summary
  ***********************
  
  -----------------------------------------------------------
                         Flow       Avg       Max       Total
                         Freq      Flow      Flow      Volume
  Outfall Node           Pcnt       LPS       LPS    10^6 ltr
  -----------------------------------------------------------
  CC-1                  31.22    683.00    683.00       3.386
  CC-2                  28.57    683.00    683.00       3.139
  JK-1                  14.20   1000.00   1000.00       1.703
  JK-2                   0.26   1000.00   1000.00       0.048
  WSC                   99.93    364.57    750.28       8.820
  -----------------------------------------------------------
  System                34.84   3730.57   3366.23      17.097
  
  
  ********************
  Link Flow Summary
  ********************
  
  -----------------------------------------------------------------------------
                                 Maximum  Time of Max   Maximum    Max/    Max/
                                  |Flow|   Occurrence   |Veloc|    Full    Full
  Link                 Type          LPS  days hr:min     m/sec    Flow   Depth
  -----------------------------------------------------------------------------
  1                    CONDUIT    750.28     0  02:45      3.08    0.26    0.35
  WS02001211WS02001212 CONDUIT    203.31     0  03:19      0.54    0.16    0.51
  WS02001212WS02001213 CONDUIT    205.33     0  03:20      1.04    0.32    0.36
  WS02001213WS02003059 CONDUIT    210.74     0  03:22      0.47    0.35    0.67
  WS02003059WS02003060 CONDUIT    218.08     0  03:21      0.67    0.14    0.58
  WS02003060WS02003069 CONDUIT    748.36     0  02:43      1.77    0.29    0.40
  WS02003066WSF200     CONDUIT    535.85     0  02:41      2.73    0.09    0.23
  WS02003067WS02003066 CONDUIT    535.82     0  02:41      1.20    0.17    0.42
  WS02003069WS02003072 CONDUIT    748.61     0  02:43      1.51    0.36    0.45
  WS02003072WS02003073 CONDUIT    748.58     0  02:44      1.59    1.62    0.43
  WS02004138WS02004139 CONDUIT    190.84     0  00:29      2.17    0.04    0.33
  WS02004139WS02001211 CONDUIT    193.09     0  02:48      0.54    0.24    0.47
  WS02004401WS02004402 CONDUIT    537.14     0  02:37      0.97    0.64    0.86
  WS02004402WS02004403 CONDUIT    537.49     0  02:39      0.97    0.77    0.88
  WS02004403WS02004404 CONDUIT    536.88     0  02:39      0.92    0.39    0.93
  WS02004404WS02004405 CONDUIT    536.79     0  02:39      1.08    5.26    0.96
  WS02004405WS02004406 CONDUIT    537.25     0  02:39      0.99    1.06    0.96
  WS02004406WS02004407 CONDUIT    536.72     0  02:39      1.04    0.24    0.63
  WS02004407WS02004409 CONDUIT    536.53     0  02:39      1.57    0.19    0.48
  WS02004409WS02004410 CONDUIT    536.25     0  02:40      1.05    0.69    0.67
  WS02004410WS02004411 CONDUIT    536.04     0  02:40      1.01    0.73    0.69
  WS02004411WS02004412 CONDUIT    535.94     0  02:40      0.96    0.76    0.69
  WS02004412WS02004413 CONDUIT    535.89     0  02:41      0.82    0.36    0.78
  WS02004413WS02003067 CONDUIT    535.78     0  02:41      1.11    0.23    0.59
  WS02006109WS02006110 CONDUIT    564.84     0  02:29      1.12    1.09    1.00
  WS02006110WS02006113 CONDUIT    572.72     0  02:29      1.38    0.52    0.79
  WS02006111WS02006112 CONDUIT    556.55     0  02:29      1.82    0.26    0.68
  WS02006112WS02006115 CONDUIT    557.29     0  03:07      0.88    0.33    0.87
  WS02006113WS02006111 CONDUIT    572.97     0  02:29      2.48    0.69    0.47
  WS02006115WS02006116 CONDUIT    546.24     0  02:29      1.11    0.70    0.76
  WS02006116WS02004401 CONDUIT    541.74     0  02:30      0.98    0.75    0.84
  WS02006228WS02006109 CONDUIT    561.62     0  02:29      1.12    2.45    1.00
  WS02006229WS02006228 CONDUIT    559.48     0  02:29      1.15    1.85    1.00
  WS02006230WS02006229 CONDUIT    559.39     0  02:29      1.45   12.45    1.00
  WS02006231WS02006230 CONDUIT    594.20     0  02:56      1.61    9.01    1.00
  WS02006232WS02006231 CONDUIT    582.13     0  02:56      1.51    1.22    1.00
  WS02006234WS02006232 CONDUIT    579.35     0  02:56      1.51    1.17    1.00
  WS02006235WS02006234 CONDUIT    590.63     0  01:55      1.54    6.23    1.00
  WS02006238WS02006235 CONDUIT    426.28     0  02:15      1.56    0.95    1.00
  WS02006239WS02006238 CONDUIT    425.77     0  02:15      1.11    1.36    1.00
  WS02006240WS02006239 CONDUIT    424.82     0  02:15      1.24    1.34    1.00
  WS02006242WS02006240 CONDUIT    422.48     0  02:15      1.12    1.68    1.00
  WS02006243WS02006242 CONDUIT    422.29     0  02:15      1.39    0.90    1.00
  WS02006245WS02006243 CONDUIT    421.65     0  02:15      1.45    1.25    1.00
  WS02006247WS02006245 CONDUIT    421.41     0  02:15      1.44    3.34    1.00
  WS02006248WS02006247 CONDUIT    420.78     0  02:15      1.45    0.92    1.00
  WS02006249WS02006248 CONDUIT    420.66     0  02:15      1.37    2.30    1.00
  WS02006251WS02006249 CONDUIT    468.27     0  03:15      1.99    1.35    1.00
  WS02006252WS02006251 CONDUIT    407.23     0  01:55     25.11    1.49    1.00
  WS02006256WS02006235 CONDUIT    289.22     0  01:47      4.23    3.06    1.00
  WSF200WS02003060     CONDUIT    535.98     0  02:41      1.76    0.12    0.32
  YS02001580YS02001583 CONDUIT    172.25     0  01:47      0.90    0.67    1.00
  YS02001583YS02001586 CONDUIT    204.97     0  01:48      0.92    0.31    1.00
  YS02001586YS02001590 CONDUIT    317.90     0  01:52      1.29    0.56    1.00
  YS02001590YS02001593 CONDUIT    317.93     0  02:01      1.12    2.00    1.00
  YS02001593YS02001596 CONDUIT    317.91     0  02:01      1.73    0.50    1.00
  YS02001596YS02001600 CONDUIT    318.05     0  01:51      1.19    0.62    1.00
  YS02001600YS02001601 CONDUIT    317.86     0  02:02      1.12    0.55    1.00
  YS02001601YS02001602 CONDUIT    571.83     0  01:47      2.02    2.07    1.00
  YS02001602YS02001605 CONDUIT    571.83     0  01:47      2.02   12.10    1.00
  YS02001605YS02001607 CONDUIT    571.74     0  01:47      2.02    3.14    1.00
  YS02001607YS02001610 CONDUIT    550.59     0  01:47      0.70    0.52    1.00
  YS02001610YS02001613 CONDUIT    557.30     0  01:47      0.71    0.64    1.00
  YS02001613YS02001616 CONDUIT    574.44     0  01:47      0.73    0.49    1.00
  YS02001616YS02001619 CONDUIT    513.51     0  01:47      0.66    0.89    1.00
  YS02001619YS02001622 CONDUIT    990.13     0  01:48      1.26    1.46    1.00
  YS02001622YS02001625 CONDUIT    966.06     0  01:48      1.23    0.52    1.00
  YS02001625YS02001629 CONDUIT    963.66     0  01:48      1.23    0.46    1.00
  YS02001629YS02163301 CONDUIT    913.45     0  01:49      1.16    1.12    1.00
  YS02001633YS02163601 CONDUIT   1427.29     0  01:49      1.82    1.50    1.00
  YS02001641YS02001644 CONDUIT   1427.58     0  01:49      1.82    4.61    1.00
  YS02001644YS02001647 CONDUIT   1881.69     0  01:49      2.41    1.11    1.00
  YS02001647YS02001649 CONDUIT   1869.92     0  01:49      2.40    0.99    1.00
  YS02001649YS02001757 CONDUIT   2158.83     0  01:49      2.75    1.31    1.00
  YS02001652YS02001649 CONDUIT    548.04     0  01:53      0.82    0.27    1.00
  YS02001655YS02001652 CONDUIT    549.02     0  01:53      1.44    0.27    1.00
  YS02001658YS02001655 CONDUIT    576.53     0  01:50      2.05    0.24    1.00
  YS02001661YS02001658 CONDUIT    654.00     0  01:58      2.39    0.26    0.86
  YS02001664YS02001661 CONDUIT    488.17     0  01:51      2.28    0.15    0.52
  YS02001745YS02001748 CONDUIT    516.10     0  01:53      2.23    0.20    0.63
  YS02001748YS02001751 CONDUIT    451.93     0  01:54      1.83    0.23    0.99
  YS02001751YS02001754 CONDUIT    373.95     0  01:52      1.52    0.18    1.00
  YS02001754YS02001757 CONDUIT    375.69     0  01:52      0.53    0.15    1.00
  YS02001757CaochengTiaoxuchi CONDUIT   3071.74     0  01:52      3.91    1.33    1.00
  YS02001759YS02001757 CONDUIT   1081.76     0  01:50      1.38    0.77    1.00
  YS02001762YS02001759 CONDUIT    634.85     0  01:50      0.81    0.73    1.00
  YS02001765YS02001762 CONDUIT    630.99     0  01:50      0.80    0.59    1.00
  YS02001767YS02001765 CONDUIT    629.90     0  01:50      0.83    0.79    1.00
  YS02001770YS02001767 CONDUIT    628.92     0  01:50      0.86    2.49    1.00
  YS02001774YS02001770 CONDUIT    437.12     0  01:50      0.56    0.28    1.00
  YS02001779YS02001774 CONDUIT    442.73     0  01:50      0.57    0.22    1.00
  YS02001783YS02001784 CONDUIT   1148.86     0  01:51      2.29    1.58    1.00
  YS02001784YS02001785 CONDUIT   1150.38     0  01:51      2.29    2.68    1.00
  YS02001786YS02001788 CONDUIT   1151.59     0  01:51      2.47    2.22    0.89
  YS02001788YS02001790 CONDUIT   1165.79     0  01:50      2.70    0.86    0.83
  YS02001790YS02001791 CONDUIT   1274.73     0  01:51      3.43    1.39    0.70
  YS02001791YS02001793 CONDUIT   1239.85     0  01:52      6.45    0.53    0.44
  YS02001793JiankangQianchi CONDUIT   1204.88     0  01:52      2.33    0.10    0.65
  YS02001882YS02001884 CONDUIT     91.01     0  01:48      0.13    0.10    1.00
  YS02001884YS02001887 CONDUIT    137.54     0  01:48      0.18    0.18    1.00
  YS02001887YS02001890 CONDUIT    518.31     0  01:48      0.66    0.89    1.00
  YS02001890YS02001895 CONDUIT    520.90     0  01:48      0.67    0.24    1.00
  YS02001895YS02001898 CONDUIT    500.39     0  01:49      0.64    0.87    1.00
  YS02001898YS02001901 CONDUIT    511.77     0  01:49      0.65    0.33    1.00
  YS02001901YS02001904 CONDUIT    512.56     0  01:49      0.65    0.79    1.00
  YS02001904YS02001907 CONDUIT    514.75     0  01:49      0.66    0.18    1.00
  YS02001907YS02006553 CONDUIT    788.10     0  02:01      0.88    0.93    1.00
  YS02001910YS02001907 CONDUIT    952.03     0  01:51      1.21    0.54    1.00
  YS02001915YS02001910 CONDUIT    951.86     0  01:51      1.21    0.47    1.00
  YS02001918YS02001915 CONDUIT    491.98     0  01:49      0.66    0.27    1.00
  YS02001920YS02001918 CONDUIT    453.52     0  01:51      0.66    0.44    1.00
  YS02001923YS02001920 CONDUIT    449.80     0  01:51      0.76    0.20    1.00
  YS02001926YS02001923 CONDUIT    592.74     0  01:50      1.01    0.85    1.00
  YS02001929YS02001926 CONDUIT    464.04     0  01:50      1.18    0.22    1.00
  YS02006553YS02006556 CONDUIT    788.58     0  02:01      1.00    0.67    1.00
  YS02006556YS02006558 CONDUIT    791.16     0  02:01      1.01    0.62    1.00
  YS02006558YS02006561 CONDUIT   1160.83     0  01:50      4.11    2.57    1.00
  YS02006561YS02001783 CONDUIT   1148.72     0  01:51      2.30    0.59    1.00
  YS02163301YS02001633 CONDUIT    913.65     0  01:49      1.16    0.86    1.00
  YS02163601YS02164001 CONDUIT   1427.50     0  01:49      1.82    1.26    1.00
  YS02164001YS02001641 CONDUIT   1427.22     0  01:49      1.82    1.95    1.00
  CC-R1                PUMP       683.00     0  00:00              1.00
  CC-R2                PUMP       683.00     0  00:00              1.00
  CC-S1                PUMP       200.00     0  00:00              1.00
  CC-S2                PUMP       200.00     0  00:00              1.00
  JK-R1                PUMP      1000.00     0  00:00              1.00
  JK-R2                PUMP      1000.00     0  00:00              1.00
  JK-S                 PUMP       300.00     0  00:00              1.00
  XR-1                 PUMP        95.00     0  00:00              1.00
  XR-2                 PUMP        95.00     0  00:00              1.00
  XR-3                 PUMP        95.00     0  00:00              1.00
  XR-4                 PUMP        95.00     0  00:00              1.00
  
  
  ***************************
  Flow Classification Summary
  ***************************
  
  -------------------------------------------------------------------------------------
                      Adjusted    ---------- Fraction of Time in Flow Class ---------- 
                       /Actual         Up    Down  Sub   Sup   Up    Down  Norm  Inlet 
  Conduit               Length    Dry  Dry   Dry   Crit  Crit  Crit  Crit  Ltd   Ctrl  
  -------------------------------------------------------------------------------------
  1                       1.00   0.00  0.00  0.00  0.00  1.00  0.00  0.00  0.21  0.00
  WS02001211WS02001212    1.00   0.00  0.02  0.00  0.98  0.00  0.00  0.00  0.00  0.00
  WS02001212WS02001213    1.00   0.02  0.00  0.00  0.18  0.00  0.80  0.00  0.00  0.00
  WS02001213WS02003059    1.00   0.00  0.01  0.00  0.99  0.00  0.00  0.00  0.00  0.00
  WS02003059WS02003060    1.00   0.00  0.00  0.00  1.00  0.00  0.00  0.00  0.03  0.00
  WS02003060WS02003069    1.00   0.00  0.00  0.00  0.98  0.02  0.00  0.00  0.67  0.00
  WS02003066WSF200        1.00   0.13  0.00  0.00  0.00  0.87  0.00  0.00  0.78  0.00
  WS02003067WS02003066    1.00   0.10  0.02  0.00  0.88  0.00  0.00  0.00  0.00  0.00
  WS02003069WS02003072    1.00   0.00  0.00  0.00  1.00  0.00  0.00  0.00  0.80  0.00
  WS02003072WS02003073    1.00   0.00  0.00  0.00  0.00  0.00  0.00  1.00  0.00  0.00
  WS02004138WS02004139    1.00   0.00  0.00  0.00  0.97  0.01  0.00  0.02  0.98  0.00
  WS02004139WS02001211    1.00   0.00  0.00  0.00  0.99  0.00  0.00  0.00  0.00  0.00
  WS02004401WS02004402    1.00   0.02  0.00  0.00  0.98  0.00  0.00  0.00  0.00  0.00
  WS02004402WS02004403    1.00   0.02  0.00  0.00  0.97  0.00  0.00  0.00  0.00  0.00
  WS02004403WS02004404    1.00   0.00  0.03  0.00  0.97  0.00  0.00  0.00  0.00  0.00
  WS02004404WS02004405    1.00   0.00  0.00  0.00  1.00  0.00  0.00  0.00  0.01  0.00
  WS02004405WS02004406    1.00   0.00  0.00  0.00  1.00  0.00  0.00  0.00  0.00  0.00
  WS02004406WS02004407    1.00   0.00  0.05  0.00  0.95  0.00  0.00  0.00  0.00  0.00
  WS02004407WS02004409    1.00   0.05  0.00  0.00  0.94  0.01  0.00  0.00  0.94  0.00
  WS02004409WS02004410    1.00   0.05  0.00  0.00  0.95  0.00  0.00  0.00  0.03  0.00
  WS02004410WS02004411    1.00   0.05  0.00  0.00  0.95  0.00  0.00  0.00  0.01  0.00
  WS02004411WS02004412    1.00   0.05  0.00  0.00  0.95  0.00  0.00  0.00  0.00  0.00
  WS02004412WS02004413    1.00   0.05  0.00  0.00  0.94  0.00  0.00  0.00  0.01  0.00
  WS02004413WS02003067    1.00   0.06  0.04  0.00  0.00  0.00  0.90  0.00  0.00  0.00
  WS02006109WS02006110    1.00   0.00  0.01  0.00  0.98  0.00  0.01  0.00  0.00  0.00
  WS02006110WS02006113    1.00   0.01  0.01  0.00  0.98  0.00  0.00  0.00  0.00  0.00
  WS02006111WS02006112    1.00   0.02  0.00  0.00  0.98  0.00  0.00  0.00  0.98  0.00
  WS02006112WS02006115    1.00   0.02  0.00  0.00  0.97  0.00  0.00  0.00  0.00  0.00
  WS02006113WS02006111    1.00   0.02  0.00  0.00  0.00  0.98  0.00  0.00  0.10  0.00
  WS02006115WS02006116    1.00   0.02  0.00  0.00  0.97  0.00  0.00  0.01  0.00  0.00
  WS02006116WS02004401    1.00   0.02  0.00  0.00  0.98  0.00  0.00  0.00  0.00  0.00
  WS02006228WS02006109    1.00   0.00  0.00  0.00  1.00  0.00  0.00  0.00  0.00  0.00
  WS02006229WS02006228    1.00   0.00  0.00  0.00  0.99  0.00  0.00  0.01  0.00  0.00
  WS02006230WS02006229    1.00   0.00  0.00  0.00  0.99  0.00  0.00  0.01  0.02  0.00
  WS02006231WS02006230    1.00   0.00  0.00  0.00  0.16  0.00  0.84  0.00  0.00  0.00
  WS02006232WS02006231    1.00   0.00  0.00  0.00  0.99  0.00  0.01  0.00  0.00  0.00
  WS02006234WS02006232    1.00   0.00  0.00  0.00  1.00  0.00  0.00  0.00  0.31  0.00
  WS02006235WS02006234    1.00   0.00  0.00  0.00  0.63  0.00  0.37  0.00  0.00  0.00
  WS02006238WS02006235    1.00   0.00  0.00  0.00  1.00  0.00  0.00  0.00  0.00  0.00
  WS02006239WS02006238    1.00   0.00  0.00  0.00  1.00  0.00  0.00  0.00  0.49  0.00
  WS02006240WS02006239    1.00   0.00  0.00  0.00  0.43  0.00  0.00  0.57  0.03  0.00
  WS02006242WS02006240    1.00   0.00  0.00  0.00  1.00  0.00  0.00  0.00  0.00  0.00
  WS02006243WS02006242    1.00   0.00  0.00  0.00  0.99  0.00  0.00  0.01  0.74  0.00
  WS02006245WS02006243    1.00   0.00  0.00  0.00  0.46  0.00  0.00  0.53  0.02  0.00
  WS02006247WS02006245    1.00   0.00  0.00  0.00  0.99  0.00  0.00  0.01  0.00  0.00
  WS02006248WS02006247    1.00   0.00  0.00  0.00  0.99  0.00  0.00  0.01  0.25  0.00
  WS02006249WS02006248    1.00   0.00  0.00  0.00  0.29  0.00  0.71  0.00  0.00  0.00
  WS02006251WS02006249    1.00   0.00  0.00  0.00  0.99  0.01  0.00  0.00  0.75  0.00
  WS02006252WS02006251    1.00   0.00  0.78  0.00  0.09  0.00  0.13  0.00  0.00  0.00
  WS02006256WS02006235    1.00   0.00  0.00  0.00  0.99  0.01  0.00  0.00  0.00  0.00
  WSF200WS02003060        1.00   0.00  0.13  0.00  0.72  0.16  0.00  0.00  0.70  0.00
  YS02001580YS02001583    1.00   0.22  0.62  0.00  0.16  0.00  0.00  0.00  0.71  0.00
  YS02001583YS02001586    1.00   0.50  0.29  0.00  0.22  0.00  0.00  0.00  0.71  0.00
  YS02001586YS02001590    1.00   0.13  0.00  0.00  0.37  0.04  0.00  0.46  0.33  0.00
  YS02001590YS02001593    1.00   0.13  0.01  0.00  0.08  0.00  0.79  0.00  0.00  0.00
  YS02001593YS02001596    1.00   0.14  0.00  0.00  0.09  0.01  0.00  0.76  0.02  0.00
  YS02001596YS02001600    1.00   0.14  0.00  0.00  0.17  0.02  0.00  0.68  0.06  0.00
  YS02001600YS02001601    1.00   0.13  0.01  0.00  0.86  0.00  0.00  0.00  0.63  0.00
  YS02001601YS02001602    1.00   0.13  0.01  0.00  0.86  0.00  0.00  0.00  0.00  0.00
  YS02001602YS02001605    1.00   0.14  0.00  0.00  0.86  0.00  0.00  0.00  0.00  0.00
  YS02001605YS02001607    1.00   0.14  0.00  0.00  0.86  0.00  0.00  0.00  0.00  0.00
  YS02001607YS02001610    1.00   0.13  0.01  0.00  0.86  0.00  0.00  0.00  0.02  0.00
  YS02001610YS02001613    1.00   0.13  0.00  0.00  0.87  0.00  0.00  0.00  0.01  0.00
  YS02001613YS02001616    1.00   0.13  0.00  0.00  0.87  0.00  0.00  0.00  0.00  0.00
  YS02001616YS02001619    1.00   0.13  0.00  0.00  0.87  0.00  0.00  0.00  0.00  0.00
  YS02001619YS02001622    1.00   0.13  0.00  0.00  0.87  0.00  0.00  0.00  0.36  0.00
  YS02001622YS02001625    1.00   0.13  0.00  0.00  0.87  0.00  0.00  0.00  0.05  0.00
  YS02001625YS02001629    1.00   0.13  0.05  0.00  0.12  0.00  0.70  0.00  0.00  0.00
  YS02001629YS02163301    1.00   0.16  0.01  0.00  0.83  0.00  0.00  0.00  0.00  0.00
  YS02001633YS02163601    1.00   0.00  0.01  0.00  0.99  0.00  0.00  0.00  0.15  0.00
  YS02001641YS02001644    1.00   0.00  0.01  0.00  0.99  0.00  0.00  0.00  0.00  0.00
  YS02001644YS02001647    1.00   0.00  0.17  0.00  0.83  0.00  0.00  0.00  0.00  0.00
  YS02001647YS02001649    1.00   0.00  0.17  0.00  0.56  0.27  0.00  0.00  0.60  0.00
  YS02001649YS02001757    1.00   0.00  0.00  0.00  0.69  0.31  0.00  0.00  0.58  0.00
  YS02001652YS02001649    1.00   0.00  0.00  0.00  0.96  0.04  0.00  0.00  0.77  0.00
  YS02001655YS02001652    1.00   0.00  0.00  0.00  0.13  0.02  0.00  0.84  0.06  0.00
  YS02001658YS02001655    1.00   0.00  0.14  0.00  0.64  0.22  0.00  0.00  0.73  0.00
  YS02001661YS02001658    1.00   0.14  0.00  0.00  0.50  0.36  0.00  0.00  0.74  0.00
  YS02001664YS02001661    1.00   0.13  0.00  0.00  0.77  0.11  0.00  0.00  0.87  0.00
  YS02001745YS02001748    1.00   0.00  0.00  0.00  0.05  0.01  0.00  0.94  0.04  0.00
  YS02001748YS02001751    1.00   0.00  0.00  0.00  0.80  0.20  0.00  0.00  0.79  0.00
  YS02001751YS02001754    1.00   0.00  0.00  0.00  0.11  0.00  0.00  0.89  0.02  0.00
  YS02001754YS02001757    1.00   0.00  0.00  0.00  1.00  0.00  0.00  0.00  0.88  0.00
  YS02001757CaochengTiaoxuchi    1.00   0.00  0.00  0.00  1.00  0.00  0.00  0.00  0.88  0.00
  YS02001759YS02001757    1.00   0.00  0.00  0.00  1.00  0.00  0.00  0.00  0.64  0.00
  YS02001762YS02001759    1.00   0.00  0.00  0.00  1.00  0.00  0.00  0.00  0.04  0.00
  YS02001765YS02001762    1.00   0.00  0.00  0.00  1.00  0.00  0.00  0.00  0.76  0.00
  YS02001767YS02001765    1.00   0.00  0.00  0.00  1.00  0.00  0.00  0.00  0.00  0.00
  YS02001770YS02001767    1.00   0.00  0.00  0.00  1.00  0.00  0.00  0.00  0.00  0.00
  YS02001774YS02001770    1.00   0.00  0.13  0.00  0.60  0.00  0.27  0.00  0.03  0.00
  YS02001779YS02001774    1.00   0.00  0.00  0.00  1.00  0.00  0.00  0.00  0.81  0.00
  YS02001783YS02001784    1.00   0.00  0.18  0.00  0.82  0.00  0.00  0.00  0.58  0.00
  YS02001784YS02001785    1.00   0.00  0.00  0.00  1.00  0.00  0.00  0.00  0.17  0.00
  YS02001786YS02001788    1.00   0.00  0.00  0.00  0.80  0.20  0.00  0.00  0.00  0.00
  YS02001788YS02001790    1.00   0.00  0.00  0.00  0.20  0.80  0.00  0.00  0.85  0.00
  YS02001790YS02001791    1.00   0.00  0.00  0.00  0.01  0.99  0.00  0.00  0.17  0.00
  YS02001791YS02001793    1.00   0.00  0.00  0.00  0.00  1.00  0.00  0.00  0.01  0.00
  YS02001793JiankangQianchi    1.00   0.00  0.00  0.00  1.00  0.00  0.00  0.00  0.97  0.00
  YS02001882YS02001884    1.00   0.15  0.01  0.00  0.84  0.00  0.00  0.00  0.00  0.00
  YS02001884YS02001887    1.00   0.06  0.05  0.00  0.89  0.00  0.00  0.00  0.00  0.00
  YS02001887YS02001890    1.00   0.00  0.00  0.00  0.97  0.00  0.03  0.00  0.00  0.00
  YS02001890YS02001895    1.00   0.00  0.16  0.00  0.83  0.00  0.00  0.00  0.00  0.00
  YS02001895YS02001898    1.00   0.17  0.00  0.00  0.81  0.00  0.02  0.00  0.00  0.00
  YS02001898YS02001901    1.00   0.17  0.00  0.00  0.83  0.00  0.00  0.00  0.01  0.00
  YS02001901YS02001904    1.00   0.17  0.00  0.00  0.83  0.00  0.00  0.00  0.00  0.00
  YS02001904YS02001907    1.00   0.00  0.17  0.00  0.83  0.00  0.00  0.00  0.00  0.00
  YS02001907YS02006553    1.00   0.00  0.02  0.00  0.98  0.00  0.00  0.00  0.00  0.00
  YS02001910YS02001907    1.00   0.00  0.00  0.00  0.97  0.00  0.00  0.03  0.12  0.00
  YS02001915YS02001910    1.00   0.00  0.00  0.00  0.97  0.03  0.00  0.00  0.16  0.00
  YS02001918YS02001915    1.00   0.00  0.01  0.00  0.98  0.02  0.00  0.00  0.79  0.00
  YS02001920YS02001918    1.00   0.00  0.01  0.00  0.99  0.00  0.00  0.00  0.00  0.00
  YS02001923YS02001920    1.00   0.00  0.00  0.00  1.00  0.00  0.00  0.00  0.95  0.00
  YS02001926YS02001923    1.00   0.00  0.07  0.00  0.03  0.00  0.89  0.00  0.00  0.00
  YS02001929YS02001926    1.00   0.00  0.13  0.00  0.87  0.00  0.00  0.00  0.85  0.00
  YS02006553YS02006556    1.00   0.01  0.00  0.00  0.99  0.00  0.00  0.00  0.03  0.00
  YS02006556YS02006558    1.00   0.00  0.00  0.00  1.00  0.00  0.00  0.00  0.00  0.00
  YS02006558YS02006561    1.00   0.18  0.00  0.00  0.03  0.79  0.00  0.00  0.19  0.00
  YS02006561YS02001783    1.00   0.18  0.00  0.00  0.06  0.76  0.00  0.00  0.73  0.00
  YS02163301YS02001633    1.00   0.00  0.16  0.00  0.84  0.00  0.00  0.00  0.00  0.00
  YS02163601YS02164001    1.00   0.00  0.08  0.00  0.92  0.00  0.00  0.00  0.00  0.00
  YS02164001YS02001641    1.00   0.01  0.07  0.00  0.92  0.00  0.00  0.00  0.06  0.00
  
  
  *************************
  Conduit Surcharge Summary
  *************************
  
  ----------------------------------------------------------------------------
                                                           Hours        Hours 
                         --------- Hours Full --------   Above Full   Capacity
  Conduit                Both Ends  Upstream  Dnstream   Normal Flow   Limited
  ----------------------------------------------------------------------------
  WS02003072WS02003073        0.01      0.01      0.01      1.40         0.01
  WS02004404WS02004405        0.01      0.01      0.01      1.88         0.01
  WS02004405WS02004406        0.01      0.01      0.01      0.47         0.01
  WS02006109WS02006110        0.50      0.50      1.28      0.63         0.01
  WS02006110WS02006113        0.01      0.01      1.28      0.01         0.01
  WS02006111WS02006112        0.01      0.01      1.34      0.01         0.01
  WS02006112WS02006115        0.01      0.01      0.55      0.01         0.01
  WS02006228WS02006109        1.27      1.28      1.27      1.41         1.27
  WS02006229WS02006228        1.27      1.27      1.27      1.32         1.26
  WS02006230WS02006229        1.28      1.30      1.28      2.54         1.28
  WS02006231WS02006230        0.52      0.52      0.72      2.15         0.01
  WS02006232WS02006231        0.67      0.67      1.28      0.73         0.01
  WS02006234WS02006232        1.23      1.23      1.28      0.71         0.70
  WS02006235WS02006234        0.96      0.97      1.24      1.94         0.02
  WS02006238WS02006235        1.25      1.25      1.28      0.01         0.01
  WS02006239WS02006238        1.27      1.28      1.27      1.23         1.07
  WS02006240WS02006239        1.25      1.26      1.26      1.24         1.02
  WS02006242WS02006240        1.26      1.26      1.27      1.33         0.01
  WS02006243WS02006242        1.25      1.25      1.26      0.01         0.05
  WS02006245WS02006243        1.24      1.24      1.25      0.74         0.68
  WS02006247WS02006245        1.24      1.24      1.24      1.48         1.22
  WS02006248WS02006247        1.23      1.23      1.24      0.01         0.05
  WS02006249WS02006248        1.23      1.23      1.23      1.45         0.01
  WS02006251WS02006249        1.22      1.23      1.23      1.34         1.15
  WS02006252WS02006251        1.44      1.44      1.44      1.44         0.01
  WS02006256WS02006235        2.00      2.05      4.02      1.13         0.01
  YS02001580YS02001583        0.34      0.34      0.39      0.01         0.01
  YS02001583YS02001586        0.35      0.35      0.48      0.01         0.01
  YS02001586YS02001590        0.48      0.48      0.54      0.01         0.01
  YS02001590YS02001593        0.54      0.54      0.56      0.59         0.01
  YS02001593YS02001596        0.55      0.55      0.63      0.01         0.01
  YS02001596YS02001600        0.67      0.67      0.76      0.01         0.01
  YS02001600YS02001601        0.82      0.82      1.14      0.01         0.01
  YS02001601YS02001602        1.00      1.00      1.20      0.77         0.01
  YS02001602YS02001605        0.94      0.94      1.00      1.97         0.01
  YS02001605YS02001607        0.90      0.94      0.90      1.08         0.90
  YS02001607YS02001610        0.51      0.51      0.53      0.01         0.01
  YS02001610YS02001613        0.50      0.50      0.53      0.01         0.01
  YS02001613YS02001616        0.47      0.47      0.50      0.01         0.01
  YS02001616YS02001619        0.45      0.45      0.47      0.01         0.01
  YS02001619YS02001622        0.45      0.45      0.45      0.58         0.42
  YS02001622YS02001625        0.45      0.45      0.61      0.01         0.01
  YS02001625YS02001629        0.40      0.40      0.61      0.01         0.01
  YS02001629YS02163301        0.60      0.60      0.61      0.15         0.17
  YS02001633YS02163601        0.62      0.62      0.65      0.36         0.36
  YS02001641YS02001644        0.54      0.56      0.54      1.27         0.53
  YS02001644YS02001647        0.35      0.35      0.54      0.04         0.01
  YS02001647YS02001649        0.35      0.35      0.45      0.01         0.01
  YS02001649YS02001757        0.45      0.45      0.51      0.21         0.16
  YS02001652YS02001649        0.31      0.31      0.45      0.01         0.01
  YS02001655YS02001652        0.14      0.14      0.29      0.01         0.01
  YS02001658YS02001655        0.01      0.01      0.14      0.01         0.01
  YS02001661YS02001658        0.01      0.01      0.02      0.01         0.01
  YS02001748YS02001751        0.01      0.01      0.04      0.01         0.01
  YS02001751YS02001754        0.04      0.04      0.19      0.01         0.01
  YS02001754YS02001757        0.23      0.23      0.51      0.01         0.01
  YS02001757CaochengTiaoxuchi        0.49      0.51      0.98      0.21         0.17
  YS02001759YS02001757        0.41      0.41      0.51      0.01         0.01
  YS02001762YS02001759        0.38      0.38      0.41      0.01         0.01
  YS02001765YS02001762        0.34      0.34      0.38      0.01         0.01
  YS02001767YS02001765        0.32      0.32      0.34      0.01         0.01
  YS02001770YS02001767        0.31      0.31      0.32      0.32         0.21
  YS02001774YS02001770        0.29      0.29      0.37      0.01         0.01
  YS02001779YS02001774        0.19      0.19      0.37      0.01         0.01
  YS02001783YS02001784        0.30      0.32      0.30      0.44         0.30
  YS02001784YS02001785        0.21      0.30      0.21      0.62         0.21
  YS02001786YS02001788        0.01      0.21      0.01      0.52         0.01
  YS02001790YS02001791        0.01      0.01      0.01      0.29         0.01
  YS02001793JiankangQianchi        0.01      0.01      7.70      0.01         0.01
  YS02001882YS02001884        0.28      0.28      0.29      0.01         0.01
  YS02001884YS02001887        0.31      0.31      0.32      0.01         0.01
  YS02001887YS02001890        0.33      0.33      0.34      0.01         0.01
  YS02001890YS02001895        0.27      0.27      0.35      0.01         0.01
  YS02001895YS02001898        0.26      0.26      0.27      0.01         0.01
  YS02001898YS02001901        0.27      0.27      0.30      0.01         0.01
  YS02001901YS02001904        0.30      0.30      0.30      0.01         0.01
  YS02001904YS02001907        0.30      0.30      0.50      0.01         0.01
  YS02001907YS02006553        0.63      0.63      0.69      0.01         0.01
  YS02001910YS02001907        0.35      0.35      0.49      0.01         0.01
  YS02001915YS02001910        0.27      0.27      0.35      0.01         0.01
  YS02001918YS02001915        0.20      0.20      0.28      0.01         0.01
  YS02001920YS02001918        0.20      0.20      0.21      0.01         0.01
  YS02001923YS02001920        0.15      0.15      0.21      0.01         0.01
  YS02001926YS02001923        0.01      0.01      0.01      0.01         0.01
  YS02001929YS02001926        0.01      0.01      0.01      0.01         0.01
  YS02006553YS02006556        0.42      0.42      0.49      0.01         0.01
  YS02006556YS02006558        0.46      0.46      0.51      0.01         0.01
  YS02006558YS02006561        0.24      0.41      0.24      0.58         0.24
  YS02006561YS02001783        0.17      0.17      0.32      0.01         0.01
  YS02163301YS02001633        0.61      0.61      0.64      0.01         0.01
  YS02163601YS02164001        0.57      0.57      0.65      0.05         0.01
  YS02164001YS02001641        0.56      0.57      0.56      0.67         0.54
  
  
  ***************
  Pumping Summary
  ***************
  
  ---------------------------------------------------------------------------------------------------------
                                                  Min       Avg       Max     Total     Power    % Time Off
                        Percent   Number of      Flow      Flow      Flow    Volume     Usage    Pump Curve
  Pump                 Utilized   Start-Ups       LPS       LPS       LPS  10^6 ltr     Kw-hr    Low   High
  ---------------------------------------------------------------------------------------------------------
  CC-R1                   17.21          14      0.00    683.00    683.00     3.385     61.14    0.0   33.5
  CC-R2                   15.95          14      0.00    683.00    683.00     3.138     56.56    0.0   36.1
  CC-S1                   19.11          14      0.00    200.00    200.00     1.101      6.71    0.0    0.0
  CC-S2                   17.98          14      0.00    200.00    200.00     1.035      6.31    0.0    0.0
  JK-R1                    5.91          10      0.00   1000.00   1000.00     1.701     19.99    0.0    0.0
  JK-R2                    0.16           1      0.00   1000.00   1000.00     0.047      0.36    0.0    0.0
  JK-S                    14.03          18      0.00    300.00    300.00     1.212     16.77    0.0    0.0
  XR-1                    97.91           2      0.00     95.00     95.00     2.679      9.60    0.0    0.0
  XR-2                    93.94           2      0.00     95.00     95.00     2.570      8.76    0.0    0.0
  XR-3                     0.00           1      0.00     95.00     95.00     0.000      0.00    0.0    0.0
  XR-4                     0.00           1      0.00     95.00     95.00     0.000      0.00    0.0    0.0
  

  Analysis begun on:  Wed Nov  5 16:31:16 2025
  Analysis ended on:  Wed Nov  5 16:31:18 2025
  Total elapsed time: 00:00:02