
  EPA STORM WATER MANAGEMENT MODEL - VERSION 5.2 (Build 5.2.4)
  PYSWMM TOOLKIT API - VERSION v1.0 (2023-11-27)
  ------------------------------------------------------------

  WARNING 04: minimum elevation drop used for Conduit WS02004404WS02004405
  WARNING 03: negative offset ignored for Link YS02001904YS02001907
  
  ****************
  Analysis Options
  ****************
  Flow Units ............... LPS
  Process Models:
    Rainfall/Runoff ........ YES
    RDII ................... NO
    Snowmelt ............... NO
    Groundwater ............ NO
    Flow Routing ........... YES
    Ponding Allowed ........ NO
    Water Quality .......... NO
  Infiltration Method ...... HORTON
  Flow Routing Method ...... DYNWAVE
  Surcharge Method ......... EXTRAN
  Starting Date ............ 08/28/2015 08:00:00
  Ending Date .............. 08/28/2015 16:00:00
  Antecedent Dry Days ...... 8.0
  Report Time Step ......... 00:01:00
  Wet Time Step ............ 00:01:00
  Dry Time Step ............ 00:01:00
  Routing Time Step ........ 30.00 sec
  Variable Time Step ....... YES
  Maximum Trials ........... 8
  Number of Threads ........ 4
  Head Tolerance ........... 0.001500 m
  
  
  **************************        Volume         Depth
  Runoff Quantity Continuity     hectare-m            mm
  **************************     ---------       -------
  Initial LID Storage ......         0.049         1.488
  Total Precipitation ......         1.405        42.345
  Evaporation Loss .........         0.000         0.000
  Infiltration Loss ........         0.080         2.405
  Surface Runoff ...........         1.003        30.246
  Final Storage ............         0.371        11.188
  Continuity Error (%) .....        -0.012
  
  
  **************************        Volume        Volume
  Flow Routing Continuity        hectare-m      10^6 ltr
  **************************     ---------     ---------
  Dry Weather Inflow .......         0.602         6.020
  Wet Weather Inflow .......         1.003        10.031
  Groundwater Inflow .......         0.000         0.000
  RDII Inflow ..............         0.000         0.000
  External Inflow ..........         0.105         1.045
  External Outflow .........         1.581        15.810
  Flooding Loss ............         0.103         1.027
  Evaporation Loss .........         0.000         0.000
  Exfiltration Loss ........         0.000         0.000
  Initial Stored Volume ....         0.303         3.031
  Final Stored Volume ......         0.332         3.324
  Continuity Error (%) .....        -0.171
  
  
  *************************
  Highest Continuity Errors
  *************************
  Node YS02001884 (4.44%)
  Node YS02001774 (3.59%)
  
  
  ***************************
  Time-Step Critical Elements
  ***************************
  Link WS02004404WS02004405 (50.58%)
  Link WS02006252WS02006251 (16.75%)
  Link WS02006238WS02006235 (16.66%)
  Link WS02006235WS02006234 (5.56%)
  Link YS02001791YS02001793 (3.48%)
  
  
  ********************************
  Highest Flow Instability Indexes
  ********************************
  Link WS02006113WS02006111 (33)
  Link WS02004404WS02004405 (26)
  Link WS02006111WS02006112 (26)
  Link WS02004403WS02004404 (25)
  Link WS02004405WS02004406 (23)
  
  
  *********************************
  Most Frequent Nonconverging Nodes
  *********************************
  Node CC-1 (4.61%)
  Node CC-2 (4.61%)
  Node JK-1 (4.61%)
  Node JK-2 (4.61%)
  Node WSC (4.61%)
  
  
  *************************
  Routing Time Step Summary
  *************************
  Minimum Time Step           :     0.00 sec
  Average Time Step           :     3.13 sec
  Maximum Time Step           :     7.04 sec
  % of Time in Steady State   :     0.00
  Average Iterations per Step :     2.53
  % of Steps Not Converging   :     4.61
  Time Step Frequencies       :
     30.000 - 13.228 sec      :     0.00 %
     13.228 -  5.833 sec      :    20.25 %
      5.833 -  2.572 sec      :    26.80 %
      2.572 -  1.134 sec      :    33.29 %
      1.134 -  0.500 sec      :    19.65 %
  
  
  ***************************
  Subcatchment Runoff Summary
  ***************************
  
  ------------------------------------------------------------------------------------------------------------------------------
                            Total      Total      Total      Total     Imperv       Perv      Total       Total     Peak  Runoff
                           Precip      Runon       Evap      Infil     Runoff     Runoff     Runoff      Runoff   Runoff   Coeff
  Subcatchment                 mm         mm         mm         mm         mm         mm         mm    10^6 ltr      LPS
  ------------------------------------------------------------------------------------------------------------------------------
  sub60                     42.35       0.00       0.00       1.46      27.83       2.47      30.30        0.40    74.83   0.715
  sub61                     42.35       0.00       0.00       2.24      27.81       3.65      31.45        0.58   107.77   0.743
  sub62                     42.35       0.00       0.00       0.99      29.64       1.68      31.31        0.86   152.34   0.739
  sub63                     42.35       0.00       0.00       4.08      23.82       5.97      29.79        0.68   120.20   0.703
  sub64                     42.35       0.00       0.00       1.96      27.11       2.99      30.09        0.72   123.60   0.711
  sub65                     42.35       0.00       0.00       1.80      29.25       2.72      31.97        0.88   148.85   0.755
  sub66                     42.35       0.00       0.00       4.63      23.01       5.11      28.11        1.31   218.77   0.664
  sub67                     42.35       0.00       0.00       0.98      30.39       1.75      32.15        0.60   116.39   0.759
  sub68                     42.35       0.00       0.00       1.72      26.84       2.80      29.64        0.82   148.70   0.700
  sub69                     42.35       0.00       0.00       1.59      28.44       3.45      31.89        1.18   192.25   0.753
  sub70                     42.35       0.00       0.00       5.02      22.77       6.76      29.53        0.85   134.07   0.697
  sub71                     42.35       0.00       0.00       0.91      26.92       1.51      28.42        0.74   126.84   0.671
  sub72                     42.35       0.00       0.00       0.87      29.06       1.39      30.46        0.42    69.34   0.719
  

  ***********************
  LID Performance Summary
  ***********************

  --------------------------------------------------------------------------------------------------------------------
                                         Total      Evap     Infil   Surface    Drain    Initial     Final  Continuity
                                        Inflow      Loss      Loss   Outflow   Outflow   Storage   Storage       Error
  Subcatchment      LID Control             mm        mm        mm        mm        mm        mm        mm           %
  --------------------------------------------------------------------------------------------------------------------
  sub60             GreenRoof            42.35      0.00      0.00      0.00      0.00      7.05     49.40       -0.00
  sub61             GreenRoof            42.35      0.00      0.00      0.00      0.00      7.05     49.40       -0.00
  sub62             GreenRoof            42.35      0.00      0.00      0.00      0.00      7.05     49.40       -0.00
  sub63             GreenRoof            42.35      0.00      0.00      0.00      0.00      7.05     49.40       -0.00
  sub64             GreenRoof            42.35      0.00      0.00      0.00      0.00      7.05     49.40       -0.00
  sub65             GreenRoof            42.35      0.00      0.00      0.00      0.00      7.05     49.40       -0.00
  sub66             GreenRoof            42.35      0.00      0.00      0.00      0.00      7.05     49.40       -0.00
  sub67             GreenRoof            42.35      0.00      0.00      0.00      0.00      7.05     49.40       -0.00
  sub68             GreenRoof            42.35      0.00      0.00      0.00      0.00      7.05     49.40       -0.00
  sub69             GreenRoof            42.35      0.00      0.00      0.00      0.00      7.05     49.40       -0.00
  sub70             GreenRoof            42.35      0.00      0.00      0.00      0.00      7.05     49.40       -0.00
  sub71             GreenRoof            42.35      0.00      0.00      0.00      0.00      7.05     49.40       -0.00
  sub72             GreenRoof            42.35      0.00      0.00      0.00      0.00      7.05     49.40       -0.00
  
  ******************
  Node Depth Summary
  ******************
  
  ---------------------------------------------------------------------------------
                                 Average  Maximum  Maximum  Time of Max    Reported
                                   Depth    Depth      HGL   Occurrence   Max Depth
  Node                 Type       Meters   Meters   Meters  days hr:min      Meters
  ---------------------------------------------------------------------------------
  WS02001211           JUNCTION     0.60     0.64     5.48     0  03:09        0.64
  WS02001212           JUNCTION     0.34     0.38     5.45     0  03:04        0.38
  WS02001213           JUNCTION     0.54     0.65     5.41     0  03:04        0.65
  WS02003059           JUNCTION     0.60     0.72     5.40     0  03:03        0.72
  WS02003060           JUNCTION     0.31     0.45     5.39     0  03:07        0.45
  WS02003066           JUNCTION     0.17     0.30     5.85     0  03:02        0.30
  WS02003067           JUNCTION     0.46     0.70     6.02     0  03:02        0.70
  WS02003069           JUNCTION     0.35     0.51     5.10     0  03:08        0.51
  WS02003072           JUNCTION     0.42     0.58     4.95     0  03:08        0.58
  WS02003073           JUNCTION     0.24     0.35     4.41     0  03:09        0.35
  WS02004138           JUNCTION     0.13     0.14     7.39     0  00:29        0.14
  WS02004139           JUNCTION     0.54     0.58     5.49     0  03:10        0.58
  WS02004401           JUNCTION     0.56     0.88     6.88     0  03:05        0.88
  WS02004402           JUNCTION     0.60     0.90     6.86     0  03:04        0.90
  WS02004403           JUNCTION     0.62     0.92     6.85     0  03:04        0.92
  WS02004404           JUNCTION     0.69     1.02     6.87     0  03:00        1.00
  WS02004405           JUNCTION     0.68     0.97     6.82     0  02:16        0.97
  WS02004406           JUNCTION     0.69     0.96     6.79     0  02:08        0.96
  WS02004407           JUNCTION     0.15     0.30     6.61     0  03:00        0.30
  WS02004409           JUNCTION     0.35     0.67     6.44     0  03:01        0.67
  WS02004410           JUNCTION     0.37     0.68     6.40     0  03:01        0.68
  WS02004411           JUNCTION     0.39     0.69     6.37     0  03:05        0.69
  WS02004412           JUNCTION     0.41     0.70     6.34     0  03:01        0.70
  WS02004413           JUNCTION     0.57     0.86     6.33     0  03:06        0.86
  WS02006109           JUNCTION     0.63     1.21     7.83     0  03:21        1.21
  WS02006110           JUNCTION     0.63     1.37     7.96     0  03:21        1.37
  WS02006111           JUNCTION     0.16     0.29     6.99     0  03:00        0.29
  WS02006112           JUNCTION     0.72     1.08     6.96     0  02:42        1.07
  WS02006113           JUNCTION     0.25     0.46     7.35     0  01:55        0.46
  WS02006115           JUNCTION     0.45     0.78     6.91     0  03:01        0.77
  WS02006116           JUNCTION     0.54     0.86     6.90     0  03:06        0.86
  WS02006228           JUNCTION     0.63     1.17     7.83     0  03:21        1.17
  WS02006229           JUNCTION     0.60     1.13     7.82     0  03:21        1.13
  WS02006230           JUNCTION     0.61     1.27     8.02     0  01:49        1.12
  WS02006231           JUNCTION     0.42     1.09     8.21     0  01:49        0.87
  WS02006232           JUNCTION     0.55     1.20     8.24     0  01:49        1.08
  WS02006234           JUNCTION     0.49     1.17     8.33     0  03:20        1.11
  WS02006235           JUNCTION     0.54     1.28     8.44     0  03:20        1.20
  WS02006238           JUNCTION     0.56     1.37     8.52     0  01:40        1.23
  WS02006239           JUNCTION     0.53     1.30     8.50     0  03:20        1.22
  WS02006240           JUNCTION     0.50     1.25     8.54     0  03:20        1.18
  WS02006242           JUNCTION     0.56     1.30     8.57     0  03:20        1.26
  WS02006243           JUNCTION     0.48     1.19     8.61     0  03:20        1.16
  WS02006245           JUNCTION     0.48     1.16     8.64     0  03:20        1.13
  WS02006247           JUNCTION     0.49     1.26     8.76     0  01:45        1.14
  WS02006248           JUNCTION     0.46     1.09     8.68     0  03:20        1.09
  WS02006249           JUNCTION     0.48     1.09     8.69     0  01:45        1.09
  WS02006251           JUNCTION     0.48     1.25     8.92     0  03:20        1.12
  WS02006252           JUNCTION     0.32     1.50     9.74     0  00:00        0.67
  WS02006256           JUNCTION     1.26     2.35     9.28     0  00:00        2.35
  WSF200               JUNCTION     0.15     0.31     5.54     0  03:06        0.31
  YS02001580           JUNCTION     0.00     0.00     8.54     0  00:00        0.00
  YS02001583           JUNCTION     0.00     0.00     8.50     0  00:00        0.00
  YS02001586           JUNCTION     0.10     0.20     8.37     0  02:23        0.20
  YS02001590           JUNCTION     0.19     0.35     8.22     0  02:23        0.35
  YS02001593           JUNCTION     0.09     0.19     8.05     0  02:23        0.19
  YS02001596           JUNCTION     0.15     0.52     7.94     0  02:23        0.52
  YS02001600           JUNCTION     0.27     0.80     7.93     0  02:23        0.80
  YS02001601           JUNCTION     0.48     1.08     7.92     0  02:23        1.08
  YS02001602           JUNCTION     0.40     0.93     7.83     0  02:23        0.93
  YS02001605           JUNCTION     0.37     0.84     7.74     0  02:23        0.84
  YS02001607           JUNCTION     0.37     0.72     7.57     0  02:24        0.72
  YS02001610           JUNCTION     0.41     0.76     7.56     0  02:24        0.76
  YS02001613           JUNCTION     0.37     0.71     7.55     0  02:24        0.71
  YS02001616           JUNCTION     0.30     0.63     7.54     0  02:24        0.63
  YS02001619           JUNCTION     0.27     0.60     7.52     0  02:24        0.60
  YS02001622           JUNCTION     0.26     0.58     7.48     0  02:25        0.58
  YS02001625           JUNCTION     0.53     0.88     7.49     0  02:24        0.88
  YS02001629           JUNCTION     0.41     0.84     7.39     0  02:24        0.84
  YS02001633           JUNCTION     0.49     0.91     7.36     0  02:25        0.91
  YS02001641           JUNCTION     0.47     0.85     7.29     0  02:24        0.85
  YS02001644           JUNCTION     0.47     0.83     7.26     0  02:24        0.83
  YS02001647           JUNCTION     0.23     0.49     7.10     0  02:24        0.49
  YS02001649           JUNCTION     0.25     0.56     6.95     0  02:24        0.56
  YS02001652           JUNCTION     0.12     0.36     6.96     0  02:24        0.36
  YS02001655           JUNCTION     0.07     0.16     7.01     0  01:41        0.16
  YS02001658           JUNCTION     0.07     0.15     7.30     0  02:21        0.15
  YS02001661           JUNCTION     0.13     0.22     7.62     0  02:21        0.22
  YS02001664           JUNCTION     0.06     0.13     8.06     0  02:21        0.13
  YS02001745           JUNCTION     0.05     0.12     7.63     0  01:41        0.12
  YS02001748           JUNCTION     0.06     0.13     7.21     0  01:41        0.13
  YS02001751           JUNCTION     0.06     0.13     7.01     0  01:41        0.13
  YS02001754           JUNCTION     0.07     0.28     6.89     0  02:26        0.28
  YS02001757           JUNCTION     0.26     0.60     6.86     0  02:27        0.60
  YS02001759           JUNCTION     0.19     0.50     6.86     0  02:26        0.50
  YS02001762           JUNCTION     0.18     0.47     6.87     0  02:26        0.46
  YS02001765           JUNCTION     0.15     0.43     6.88     0  02:26        0.42
  YS02001767           JUNCTION     0.15     0.39     6.88     0  02:25        0.38
  YS02001770           JUNCTION     0.17     0.41     6.91     0  02:26        0.41
  YS02001774           JUNCTION     0.24     0.48     6.91     0  02:24        0.48
  YS02001779           JUNCTION     0.06     0.23     6.92     0  02:25        0.22
  YS02001783           JUNCTION     0.22     0.47     6.61     0  02:24        0.47
  YS02001784           JUNCTION     0.25     0.49     6.56     0  02:24        0.49
  YS02001786           JUNCTION     0.21     0.42     6.45     0  02:24        0.42
  YS02001788           JUNCTION     0.15     0.32     6.30     0  02:25        0.32
  YS02001790           JUNCTION     0.19     0.39     6.03     0  02:25        0.39
  YS02001791           JUNCTION     0.12     0.25     5.72     0  02:25        0.25
  YS02001793           JUNCTION     0.06     0.13     4.96     0  02:25        0.13
  YS02001882           JUNCTION     0.26     0.52     7.24     0  02:23        0.52
  YS02001884           JUNCTION     0.35     0.62     7.24     0  02:24        0.62
  YS02001887           JUNCTION     0.43     0.70     7.24     0  02:24        0.70
  YS02001890           JUNCTION     0.46     0.73     7.24     0  02:24        0.73
  YS02001895           JUNCTION     0.23     0.49     7.24     0  02:23        0.48
  YS02001898           JUNCTION     0.24     0.50     7.24     0  02:24        0.50
  YS02001901           JUNCTION     0.35     0.62     7.23     0  02:24        0.62
  YS02001904           JUNCTION     0.33     0.60     7.23     0  02:23        0.60
  YS02001907           JUNCTION     0.65     0.94     7.23     0  02:24        0.94
  YS02001910           JUNCTION     0.45     0.73     7.24     0  02:24        0.73
  YS02001915           JUNCTION     0.26     0.51     7.23     0  02:23        0.51
  YS02001918           JUNCTION     0.08     0.15     7.22     0  02:24        0.15
  YS02001920           JUNCTION     0.17     0.27     7.28     0  02:23        0.27
  YS02001923           JUNCTION     0.06     0.12     7.38     0  02:22        0.12
  YS02001926           JUNCTION     0.13     0.23     7.68     0  02:22        0.23
  YS02001929           JUNCTION     0.06     0.12     7.82     0  02:22        0.12
  YS02006553           JUNCTION     0.66     0.94     7.22     0  02:23        0.94
  YS02006556           JUNCTION     0.63     0.91     7.22     0  02:24        0.91
  YS02006558           JUNCTION     0.67     0.95     7.22     0  02:24        0.95
  YS02006561           JUNCTION     0.13     0.26     6.92     0  02:23        0.26
  YS02163301           JUNCTION     0.43     0.86     7.37     0  02:24        0.86
  YS02163601           JUNCTION     0.53     0.93     7.33     0  02:25        0.93
  YS02164001           JUNCTION     0.46     0.85     7.30     0  02:25        0.85
  CC-1                 OUTFALL      0.00     0.00     0.00     0  00:00        0.00
  CC-2                 OUTFALL      0.00     0.00     0.00     0  00:00        0.00
  JK-1                 OUTFALL      0.00     0.00     0.00     0  00:00        0.00
  JK-2                 OUTFALL      0.00     0.00     0.00     0  00:00        0.00
  WSC                  OUTFALL      0.24     0.35     1.02     0  03:10        0.35
  CC-storage           STORAGE      0.81     1.24     6.74     0  02:35        1.24
  JK-storage           STORAGE      2.79     4.20     5.00     0  01:50        4.19
  XR-storage           STORAGE      7.79     9.26     7.26     0  08:00        9.26
  
  
  *******************
  Node Inflow Summary
  *******************
  
  -------------------------------------------------------------------------------------------------
                                  Maximum  Maximum                  Lateral       Total        Flow
                                  Lateral    Total  Time of Max      Inflow      Inflow     Balance
                                   Inflow   Inflow   Occurrence      Volume      Volume       Error
  Node                 Type           LPS      LPS  days hr:min    10^6 ltr    10^6 ltr     Percent
  -------------------------------------------------------------------------------------------------
  WS02001211           JUNCTION      7.35   200.71     0  03:29       0.212        5.44       0.611
  WS02001212           JUNCTION      0.00   202.35     0  03:26           0        5.41       0.290
  WS02001213           JUNCTION      0.00   203.45     0  04:01           0        5.39       0.331
  WS02003059           JUNCTION      0.00   209.54     0  03:27           0        5.38       0.591
  WS02003060           JUNCTION     16.53   753.09     0  03:07       0.476        10.3       0.136
  WS02003066           JUNCTION      0.00   538.63     0  03:06           0        4.48       0.027
  WS02003067           JUNCTION      0.00   538.56     0  03:06           0        4.48       0.090
  WS02003069           JUNCTION      0.32   753.01     0  03:07     0.00922        10.3       0.143
  WS02003072           JUNCTION      0.00   752.86     0  03:08           0        10.3       0.196
  WS02003073           JUNCTION      1.82   754.61     0  03:09      0.0524        10.3       0.202
  WS02004138           JUNCTION      0.00   380.00     0  00:00           0        5.25       0.053
  WS02004139           JUNCTION      0.32   191.16     0  00:29     0.00924        5.26       0.509
  WS02004401           JUNCTION      0.00   539.56     0  02:07           0        4.57       0.216
  WS02004402           JUNCTION      0.00   543.10     0  03:05           0        4.56       0.221
  WS02004403           JUNCTION      0.00   540.74     0  03:04           0        4.55       0.209
  WS02004404           JUNCTION      0.16   559.43     0  03:00     0.00467        4.54       0.064
  WS02004405           JUNCTION      0.04   605.09     0  02:12      0.0011        4.54       0.242
  WS02004406           JUNCTION      0.00   545.73     0  02:08           0        4.53       0.448
  WS02004407           JUNCTION      0.00   540.44     0  03:04           0        4.51       0.020
  WS02004409           JUNCTION      0.00   539.68     0  03:00           0        4.51       0.049
  WS02004410           JUNCTION      0.00   539.35     0  03:01           0        4.51       0.086
  WS02004411           JUNCTION      0.00   539.00     0  03:01           0         4.5       0.113
  WS02004412           JUNCTION      0.00   539.02     0  03:01           0         4.5       0.155
  WS02004413           JUNCTION      0.00   538.72     0  03:10           0        4.49       0.279
  WS02006109           JUNCTION      1.23   552.14     0  01:49      0.0354        4.61       0.177
  WS02006110           JUNCTION      0.00   553.65     0  01:49           0        4.61       0.137
  WS02006111           JUNCTION      0.00   560.81     0  01:55           0         4.6       0.011
  WS02006112           JUNCTION      0.00   542.16     0  01:57           0         4.6       0.387
  WS02006113           JUNCTION      0.00   567.32     0  03:21           0         4.6       0.037
  WS02006115           JUNCTION      0.00   544.84     0  01:57           0        4.58       0.135
  WS02006116           JUNCTION      0.00   539.74     0  02:59           0        4.57       0.120
  WS02006228           JUNCTION      0.00   548.64     0  01:49           0        4.58       0.065
  WS02006229           JUNCTION      0.00   549.49     0  01:49           0        4.59       0.097
  WS02006230           JUNCTION     10.28   589.51     0  01:48       0.296        4.59       0.133
  WS02006231           JUNCTION      0.00   572.21     0  01:48           0         4.3      -0.029
  WS02006232           JUNCTION      0.00   571.06     0  01:48           0        4.31       0.401
  WS02006234           JUNCTION      0.00   566.61     0  01:48           0        4.31      -0.116
  WS02006235           JUNCTION      0.00   560.40     0  03:20           0        4.38       0.344
  WS02006238           JUNCTION      0.00   421.32     0  03:18           0        3.04       0.032
  WS02006239           JUNCTION      0.00   420.55     0  01:46           0        3.01       0.177
  WS02006240           JUNCTION      0.00   416.53     0  03:21           0        2.98       0.008
  WS02006242           JUNCTION      0.00   416.45     0  03:21           0        2.96      -0.095
  WS02006243           JUNCTION      0.00   416.42     0  03:21           0        2.95      -0.023
  WS02006245           JUNCTION      0.00   417.44     0  03:21           0        2.96       0.342
  WS02006247           JUNCTION      0.00   418.57     0  03:18           0        2.96       0.001
  WS02006248           JUNCTION      0.00   420.29     0  03:18           0        2.96      -0.084
  WS02006249           JUNCTION      0.00   458.97     0  00:00           0        3.36       0.396
  WS02006251           JUNCTION      0.08   404.38     0  03:55     0.00222        3.36       0.035
  WS02006252           JUNCTION      0.00   400.00     0  00:00           0        3.35      -0.264
  WS02006256           JUNCTION      0.00   310.15     0  01:40           0        2.01      -0.272
  WSF200               JUNCTION      0.00   538.66     0  03:07           0        4.47       0.011
  YS02001580           JUNCTION      0.00     0.00     0  00:00           0           0       0.000 ltr
  YS02001583           JUNCTION      0.00     0.00     0  00:00           0           0       0.000 ltr
  YS02001586           JUNCTION    134.07   134.07     0  02:23       0.853       0.853       0.024
  YS02001590           JUNCTION      0.00   134.06     0  02:23           0       0.853      -0.017
  YS02001593           JUNCTION      0.00   134.02     0  02:23           0       0.853      -0.003
  YS02001596           JUNCTION      0.00   134.02     0  02:23           0       0.853      -0.001
  YS02001600           JUNCTION      0.00   135.49     0  02:25           0       0.853       0.017
  YS02001601           JUNCTION    192.25   324.67     0  02:23        1.18        2.03       0.033
  YS02001602           JUNCTION      0.00   324.67     0  02:23           0        2.03       0.019
  YS02001605           JUNCTION      0.00   324.66     0  02:23           0        2.03       0.020
  YS02001607           JUNCTION      0.00   324.66     0  02:23           0        2.03       0.093
  YS02001610           JUNCTION      0.00   323.93     0  02:23           0        2.03       0.123
  YS02001613           JUNCTION      0.00   323.17     0  02:23           0        2.03       0.085
  YS02001616           JUNCTION      0.00   322.57     0  02:24           0        2.03       0.022
  YS02001619           JUNCTION    218.77   539.53     0  02:23        1.31        3.34      -0.002
  YS02001622           JUNCTION      0.00   538.94     0  02:24           0        3.34      -0.003
  YS02001625           JUNCTION      0.00   538.35     0  02:24           0        3.34       0.285
  YS02001629           JUNCTION      0.00   538.42     0  02:25           0        3.33       0.023
  YS02001633           JUNCTION    149.05   683.23     0  02:24       0.886        4.22       0.078
  YS02001641           JUNCTION      0.00   683.96     0  02:25           0        4.22       0.069
  YS02001644           JUNCTION    123.64   802.38     0  02:25       0.724        4.93       0.064
  YS02001647           JUNCTION      0.00   802.79     0  02:25           0        4.92       0.010
  YS02001649           JUNCTION      0.00   942.98     0  02:23           0         5.6       0.009
  YS02001652           JUNCTION      0.00   120.26     0  02:21           0       0.679      -0.173
  YS02001655           JUNCTION      0.15   120.29     0  02:21     0.00443        0.68       0.118
  YS02001658           JUNCTION      0.00   120.15     0  02:21           0       0.676      -0.001
  YS02001661           JUNCTION      0.00   120.18     0  02:21           0       0.676       0.055
  YS02001664           JUNCTION    120.20   120.20     0  02:21       0.676       0.676      -0.013
  YS02001745           JUNCTION     74.83    74.83     0  01:41       0.398       0.398      -0.005
  YS02001748           JUNCTION      0.04    74.82     0  01:41      0.0013       0.399       0.001
  YS02001751           JUNCTION      0.01    74.83     0  01:41    0.000317         0.4       0.046
  YS02001754           JUNCTION      0.26    98.31     0  02:35     0.00749       0.416       0.153
  YS02001757           JUNCTION      0.00  1327.33     0  02:23           0        7.47       0.021
  YS02001759           JUNCTION    107.81   261.87     0  02:22       0.578        1.45      -0.014
  YS02001762           JUNCTION      0.00   161.38     0  02:27           0       0.877       0.018
  YS02001765           JUNCTION      0.00   161.67     0  02:26           0       0.876       0.024
  YS02001767           JUNCTION      0.54   160.53     0  02:26      0.0154       0.876       0.012
  YS02001770           JUNCTION    152.50   152.50     0  01:41       0.862       0.881      -0.002
  YS02001774           JUNCTION      0.00    31.98     0  01:06           0      0.0347       3.719
  YS02001779           JUNCTION      0.01    29.75     0  02:24    0.000144      0.0144       0.225
  YS02001783           JUNCTION      0.00   433.30     0  02:23           0        2.63       0.009
  YS02001784           JUNCTION      1.06   435.25     0  02:24      0.0305        2.66       0.019
  YS02001786           JUNCTION      0.06   433.39     0  02:25     0.00162        2.66       0.026
  YS02001788           JUNCTION      0.07   432.54     0  02:24     0.00204        2.66       0.012
  YS02001790           JUNCTION      0.15   432.42     0  02:25     0.00446        2.66       0.015
  YS02001791           JUNCTION      0.00   431.83     0  02:25           0        2.66       0.007
  YS02001793           JUNCTION      0.00   431.93     0  02:25           0        2.66       0.006
  YS02001882           JUNCTION      0.00    21.43     0  01:18           0      0.0297       2.381
  YS02001884           JUNCTION      0.00    31.70     0  01:16           0      0.0566       4.643
  YS02001887           JUNCTION    116.84   116.84     0  01:40       0.611       0.635       0.688
  YS02001890           JUNCTION      0.00   117.18     0  01:42           0       0.603       0.858
  YS02001895           JUNCTION      0.00   104.30     0  01:42           0       0.598       0.337
  YS02001898           JUNCTION      0.00   115.11     0  01:44           0       0.596       0.017
  YS02001901           JUNCTION      0.00   121.00     0  01:45           0       0.599       0.571
  YS02001904           JUNCTION      0.00   103.49     0  02:27           0       0.605       0.474
  YS02001907           JUNCTION      0.00   299.84     0  02:25           0        1.85       0.983
  YS02001910           JUNCTION      0.00   220.34     0  02:23           0        1.24       0.592
  YS02001915           JUNCTION    126.86   197.36     0  02:23       0.744        1.25       0.121
  YS02001918           JUNCTION      0.00    72.17     0  02:24           0       0.503       0.058
  YS02001920           JUNCTION      2.87    72.22     0  02:22      0.0827       0.504       0.206
  YS02001923           JUNCTION      0.04    69.35     0  02:22     0.00109       0.421       0.002
  YS02001926           JUNCTION      0.05    69.38     0  02:22      0.0015        0.42       0.059
  YS02001929           JUNCTION     69.34    69.34     0  02:22       0.419       0.419      -0.012
  YS02006553           JUNCTION      0.00   303.72     0  02:25           0        1.84       0.648
  YS02006556           JUNCTION      0.00   300.40     0  02:25           0        1.85       0.451
  YS02006558           JUNCTION    149.58   437.30     0  02:24       0.841        2.66       0.124
  YS02006561           JUNCTION      0.00   460.80     0  02:22           0        2.63       0.002
  YS02163301           JUNCTION      0.00   539.14     0  02:26           0        3.33       0.049
  YS02163601           JUNCTION      0.11   683.23     0  02:24     0.00317        4.21       0.120
  YS02164001           JUNCTION      0.00   683.44     0  02:25           0        4.21       0.059
  CC-1                 OUTFALL       0.00   683.00     0  00:00           0        4.69       0.000
  CC-2                 OUTFALL       0.00   683.00     0  00:00           0       0.205       0.000
  JK-1                 OUTFALL       0.00  1000.00     0  00:00           0       0.584       0.000
  JK-2                 OUTFALL       0.00  1000.00     0  00:00           0      0.0484       0.000
  WSC                  OUTFALL       0.00   754.55     0  03:10           0        10.3       0.000
  CC-storage           STORAGE       0.00  1222.45     0  02:24           0        9.69      -0.193
  JK-storage           STORAGE       0.00   431.93     0  02:25           0        2.81       0.106
  XR-storage           STORAGE     200.00   200.00     0  00:00        5.76        6.36       0.001
  
  
  **********************
  Node Surcharge Summary
  **********************
  
  Surcharging occurs when water rises above the top of the highest conduit.
  ---------------------------------------------------------------------
                                               Max. Height   Min. Depth
                                   Hours       Above Crown    Below Rim
  Node                 Type      Surcharged         Meters       Meters
  ---------------------------------------------------------------------
  WS02004404           JUNCTION        0.12          0.025        2.755
  WS02006109           JUNCTION        2.05          0.388        1.432
  WS02006110           JUNCTION        1.48          0.464        1.386
  WS02006112           JUNCTION        1.52          0.080        1.600
  WS02006228           JUNCTION        2.05          0.344        1.856
  WS02006229           JUNCTION        2.08          0.331        2.119
  WS02006230           JUNCTION        1.49          0.193        1.377
  WS02006231           JUNCTION        1.51          0.378        1.152
  WS02006232           JUNCTION        2.14          0.501        0.979
  WS02006234           JUNCTION        1.58          0.450        0.790
  WS02006235           JUNCTION        2.08          0.569        0.721
  WS02006238           JUNCTION        2.10          0.652        0.778
  WS02006239           JUNCTION        2.02          0.556        0.734
  WS02006240           JUNCTION        2.02          0.540        0.850
  WS02006242           JUNCTION        2.05          0.574        0.246
  WS02006243           JUNCTION        2.04          0.480        0.290
  WS02006245           JUNCTION        2.03          0.446        0.404
  WS02006247           JUNCTION        2.04          0.547        0.213
  WS02006248           JUNCTION        2.03          0.375        0.005
  WS02006249           JUNCTION        2.03          0.390        0.000
  WS02006251           JUNCTION        1.52          0.224        0.956
  WS02006252           JUNCTION        2.18          1.100        0.000
  WS02006256           JUNCTION        4.63          2.050        0.000
  YS02001600           JUNCTION        0.36          0.122        1.068
  YS02001601           JUNCTION        1.72          0.459        0.981
  YS02001602           JUNCTION        1.48          0.331        0.939
  YS02001605           JUNCTION        1.44          0.235        0.945
  
  
  *********************
  Node Flooding Summary
  *********************
  
  Flooding refers to all water that overflows a node, whether it ponds or not.
  --------------------------------------------------------------------------
                                                             Total   Maximum
                                 Maximum   Time of Max       Flood    Ponded
                        Hours       Rate    Occurrence      Volume     Depth
  Node                 Flooded       LPS   days hr:min    10^6 ltr    Meters
  --------------------------------------------------------------------------
  WS02006249              1.51     81.52      0  01:49       0.383     0.000
  WS02006252              0.01    245.63      0  00:00       0.000     0.000
  WS02006256              1.86    305.06      0  01:40       0.644     0.000
  
  
  **********************
  Storage Volume Summary
  **********************
  
  ------------------------------------------------------------------------------------------------
                         Average    Avg   Evap  Exfil     Maximum    Max    Time of Max    Maximum
                          Volume   Pcnt   Pcnt   Pcnt      Volume   Pcnt     Occurrence    Outflow
  Storage Unit           1000 m³   Full   Loss   Loss     1000 m³   Full    days hr:min        LPS
  ------------------------------------------------------------------------------------------------
  CC-storage               2.256   35.2    0.0    0.0       3.443   53.7       0  02:35    1783.53
  JK-storage               0.140   48.1    0.0    0.0       0.211   72.5       0  01:50    2300.00
  XR-storage               0.934   64.9    0.0    0.0       1.111   77.2       0  08:00     380.00
  
  
  ***********************
  Outfall Loading Summary
  ***********************
  
  -----------------------------------------------------------
                         Flow       Avg       Max       Total
                         Freq      Flow      Flow      Volume
  Outfall Node           Pcnt       LPS       LPS    10^6 ltr
  -----------------------------------------------------------
  CC-1                  33.18    683.00    683.00       4.689
  CC-2                   1.05    683.00    683.00       0.205
  JK-1                   3.06   1000.00   1000.00       0.584
  JK-2                   0.23   1000.00   1000.00       0.048
  WSC                   99.93    414.15    754.55      10.283
  -----------------------------------------------------------
  System                27.49   3780.15   3366.23      15.810
  
  
  ********************
  Link Flow Summary
  ********************
  
  -----------------------------------------------------------------------------
                                 Maximum  Time of Max   Maximum    Max/    Max/
                                  |Flow|   Occurrence   |Veloc|    Full    Full
  Link                 Type          LPS  days hr:min     m/sec    Flow   Depth
  -----------------------------------------------------------------------------
  1                    CONDUIT    754.55     0  03:10      3.08    0.26    0.35
  WS02001211WS02001212 CONDUIT    202.35     0  03:26      0.54    0.15    0.51
  WS02001212WS02001213 CONDUIT    203.45     0  04:01      1.04    0.31    0.36
  WS02001213WS02003059 CONDUIT    209.54     0  03:27      0.47    0.35    0.67
  WS02003059WS02003060 CONDUIT    214.26     0  04:02      0.67    0.14    0.59
  WS02003060WS02003069 CONDUIT    752.69     0  03:07      1.77    0.29    0.40
  WS02003066WSF200     CONDUIT    538.66     0  03:07      2.74    0.09    0.23
  WS02003067WS02003066 CONDUIT    538.63     0  03:06      1.21    0.17    0.42
  WS02003069WS02003072 CONDUIT    752.86     0  03:08      1.51    0.36    0.45
  WS02003072WS02003073 CONDUIT    752.79     0  03:09      1.60    1.63    0.43
  WS02004138WS02004139 CONDUIT    190.84     0  00:29      2.17    0.04    0.33
  WS02004139WS02001211 CONDUIT    193.36     0  03:29      0.54    0.24    0.47
  WS02004401WS02004402 CONDUIT    543.10     0  03:05      0.97    0.65    0.89
  WS02004402WS02004403 CONDUIT    540.74     0  03:04      0.97    0.78    0.91
  WS02004403WS02004404 CONDUIT    559.27     0  03:00      0.92    0.40    0.96
  WS02004404WS02004405 CONDUIT    605.05     0  02:12      1.08    5.93    0.98
  WS02004405WS02004406 CONDUIT    545.73     0  02:08      0.99    1.08    0.96
  WS02004406WS02004407 CONDUIT    540.44     0  03:04      1.04    0.24    0.63
  WS02004407WS02004409 CONDUIT    539.68     0  03:00      1.47    0.19    0.48
  WS02004409WS02004410 CONDUIT    539.35     0  03:01      0.96    0.70    0.68
  WS02004410WS02004411 CONDUIT    539.00     0  03:01      0.94    0.74    0.69
  WS02004411WS02004412 CONDUIT    539.02     0  03:01      0.93    0.77    0.70
  WS02004412WS02004413 CONDUIT    538.72     0  03:10      0.82    0.36    0.78
  WS02004413WS02003067 CONDUIT    538.56     0  03:06      1.11    0.23    0.59
  WS02006109WS02006110 CONDUIT    553.65     0  01:49      1.10    1.06    1.00
  WS02006110WS02006113 CONDUIT    567.32     0  03:21      1.37    0.52    0.78
  WS02006111WS02006112 CONDUIT    542.16     0  01:57      1.82    0.26    0.67
  WS02006112WS02006115 CONDUIT    544.84     0  01:57      0.77    0.32    0.88
  WS02006113WS02006111 CONDUIT    560.81     0  01:55      2.46    0.67    0.46
  WS02006115WS02006116 CONDUIT    539.74     0  02:59      0.97    0.69    0.79
  WS02006116WS02004401 CONDUIT    539.56     0  02:07      0.98    0.74    0.87
  WS02006228WS02006109 CONDUIT    550.91     0  01:49      1.10    2.41    1.00
  WS02006229WS02006228 CONDUIT    548.64     0  01:49      1.15    1.82    1.00
  WS02006230WS02006229 CONDUIT    549.49     0  01:49      1.43   12.23    1.00
  WS02006231WS02006230 CONDUIT    579.24     0  01:48      1.57    8.79    1.00
  WS02006232WS02006231 CONDUIT    572.21     0  01:48      1.49    1.20    1.00
  WS02006234WS02006232 CONDUIT    571.06     0  01:48      1.48    1.16    1.00
  WS02006235WS02006234 CONDUIT    566.61     0  01:48      1.47    5.98    1.00
  WS02006238WS02006235 CONDUIT    422.22     0  03:18      1.55    0.94    1.00
  WS02006239WS02006238 CONDUIT    421.32     0  03:18      1.11    1.35    1.00
  WS02006240WS02006239 CONDUIT    420.55     0  01:46      1.24    1.32    1.00
  WS02006242WS02006240 CONDUIT    416.53     0  03:21      1.12    1.65    1.00
  WS02006243WS02006242 CONDUIT    416.45     0  03:21      1.39    0.89    1.00
  WS02006245WS02006243 CONDUIT    416.42     0  03:21      1.45    1.23    1.00
  WS02006247WS02006245 CONDUIT    417.44     0  03:21      1.44    3.31    1.00
  WS02006248WS02006247 CONDUIT    418.57     0  03:18      1.45    0.91    1.00
  WS02006249WS02006248 CONDUIT    420.29     0  03:18      1.37    2.30    1.00
  WS02006251WS02006249 CONDUIT    458.97     0  00:00      1.99    1.32    1.00
  WS02006252WS02006251 CONDUIT    404.30     0  03:55     25.11    1.48    1.00
  WS02006256WS02006235 CONDUIT    289.19     0  01:28      4.23    3.06    1.00
  WSF200WS02003060     CONDUIT    538.98     0  03:07      1.76    0.12    0.32
  YS02001580YS02001583 CONDUIT      0.00     0  00:00      0.00    0.00    0.00
  YS02001583YS02001586 CONDUIT      0.00     0  00:00      0.00    0.00    0.15
  YS02001586YS02001590 CONDUIT    134.06     0  02:23      1.20    0.23    0.42
  YS02001590YS02001593 CONDUIT    134.02     0  02:23      0.97    0.84    0.49
  YS02001593YS02001596 CONDUIT    134.02     0  02:23      1.70    0.21    0.48
  YS02001596YS02001600 CONDUIT    135.49     0  02:25      1.18    0.26    0.94
  YS02001600YS02001601 CONDUIT    135.59     0  02:25      0.48    0.23    1.00
  YS02001601YS02001602 CONDUIT    324.67     0  02:23      1.15    1.17    1.00
  YS02001602YS02001605 CONDUIT    324.66     0  02:23      1.15    6.87    1.00
  YS02001605YS02001607 CONDUIT    324.66     0  02:23      1.15    1.78    1.00
  YS02001607YS02001610 CONDUIT    323.93     0  02:23      0.66    0.31    0.74
  YS02001610YS02001613 CONDUIT    323.17     0  02:23      0.52    0.37    0.74
  YS02001613YS02001616 CONDUIT    322.57     0  02:24      0.58    0.28    0.67
  YS02001616YS02001619 CONDUIT    322.54     0  02:24      0.65    0.56    0.61
  YS02001619YS02001622 CONDUIT    538.94     0  02:24      1.36    0.79    0.59
  YS02001622YS02001625 CONDUIT    538.35     0  02:24      0.88    0.29    0.73
  YS02001625YS02001629 CONDUIT    538.42     0  02:25      0.97    0.26    0.67
  YS02001629YS02163301 CONDUIT    539.14     0  02:26      0.76    0.66    0.85
  YS02001633YS02163601 CONDUIT    683.12     0  02:24      0.91    0.72    0.91
  YS02001641YS02001644 CONDUIT    684.38     0  02:25      0.97    2.21    0.84
  YS02001644YS02001647 CONDUIT    802.79     0  02:25      1.46    0.47    0.66
  YS02001647YS02001649 CONDUIT    803.21     0  02:24      1.95    0.42    0.52
  YS02001649YS02001757 CONDUIT    936.56     0  02:25      2.12    0.57    0.58
  YS02001652YS02001649 CONDUIT    143.71     0  02:23      1.08    0.07    0.46
  YS02001655YS02001652 CONDUIT    120.26     0  02:21      1.29    0.06    0.25
  YS02001658YS02001655 CONDUIT    120.13     0  02:21      1.50    0.05    0.16
  YS02001661YS02001658 CONDUIT    120.15     0  02:21      1.62    0.05    0.15
  YS02001664YS02001661 CONDUIT    120.18     0  02:21      1.30    0.04    0.18
  YS02001745YS02001748 CONDUIT     74.77     0  01:41      1.46    0.03    0.12
  YS02001748YS02001751 CONDUIT     74.82     0  01:41      1.23    0.04    0.13
  YS02001751YS02001754 CONDUIT     74.78     0  01:41      1.25    0.04    0.18
  YS02001754YS02001757 CONDUIT    155.94     0  02:23      0.80    0.06    0.43
  YS02001757CaochengTiaoxuchi CONDUIT   1222.45     0  02:24      1.82    0.53    0.80
  YS02001759YS02001757 CONDUIT    256.37     0  02:22      1.09    0.18    0.55
  YS02001762YS02001759 CONDUIT    172.68     0  02:27      0.71    0.20    0.48
  YS02001765YS02001762 CONDUIT    161.38     0  02:27      0.77    0.15    0.45
  YS02001767YS02001765 CONDUIT    161.67     0  02:26      0.78    0.20    0.40
  YS02001770YS02001767 CONDUIT    160.00     0  02:26      0.70    0.63    0.39
  YS02001774YS02001770 CONDUIT     31.98     0  01:06      0.54    0.02    0.43
  YS02001779YS02001774 CONDUIT     29.74     0  02:24      0.14    0.01    0.35
  YS02001783YS02001784 CONDUIT    434.19     0  02:24      1.38    0.60    0.60
  YS02001784YS02001785 CONDUIT    433.33     0  02:25      1.47    1.01    0.57
  YS02001786YS02001788 CONDUIT    432.47     0  02:24      1.92    0.83    0.46
  YS02001788YS02001790 CONDUIT    432.27     0  02:25      2.03    0.32    0.44
  YS02001790YS02001791 CONDUIT    431.83     0  02:25      2.33    0.47    0.40
  YS02001791YS02001793 CONDUIT    431.93     0  02:25      4.84    0.19    0.23
  YS02001793JiankangQianchi CONDUIT    431.93     0  02:25      0.95    0.03    0.56
  YS02001882YS02001884 CONDUIT     21.43     0  01:18      0.28    0.02    0.54
  YS02001884YS02001887 CONDUIT     31.70     0  01:16      0.22    0.04    0.63
  YS02001887YS02001890 CONDUIT    117.18     0  01:42      0.23    0.20    0.69
  YS02001890YS02001895 CONDUIT    104.30     0  01:42      0.26    0.05    0.61
  YS02001895YS02001898 CONDUIT    115.11     0  01:44      0.53    0.20    0.47
  YS02001898YS02001901 CONDUIT    121.00     0  01:45      0.46    0.08    0.56
  YS02001901YS02001904 CONDUIT    103.49     0  02:27      0.47    0.16    0.61
  YS02001904YS02001907 CONDUIT    120.84     0  01:47      0.25    0.04    0.77
  YS02001907YS02006553 CONDUIT    303.72     0  02:25      0.34    0.36    1.00
  YS02001910YS02001907 CONDUIT    212.54     0  02:24      0.49    0.12    0.83
  YS02001915YS02001910 CONDUIT    220.34     0  02:23      0.92    0.11    0.62
  YS02001918YS02001915 CONDUIT     74.86     0  02:25      0.45    0.04    0.33
  YS02001920YS02001918 CONDUIT     72.17     0  02:24      0.63    0.07    0.21
  YS02001923YS02001920 CONDUIT     69.35     0  02:22      0.64    0.03    0.19
  YS02001926YS02001923 CONDUIT     69.31     0  02:22      0.67    0.10    0.19
  YS02001929YS02001926 CONDUIT     69.33     0  02:22      0.73    0.03    0.18
  YS02006553YS02006556 CONDUIT    300.40     0  02:25      0.40    0.26    0.90
  YS02006556YS02006558 CONDUIT    301.06     0  02:24      0.40    0.24    0.93
  YS02006558YS02006561 CONDUIT    460.80     0  02:22      2.66    1.02    0.60
  YS02006561YS02001783 CONDUIT    433.30     0  02:23      1.93    0.22    0.46
  YS02163301YS02001633 CONDUIT    540.12     0  02:26      0.74    0.51    0.88
  YS02163601YS02164001 CONDUIT    683.44     0  02:25      0.93    0.61    0.89
  YS02164001YS02001641 CONDUIT    683.96     0  02:25      0.96    0.93    0.85
  CC-R1                PUMP       683.00     0  00:00              1.00
  CC-R2                PUMP       683.00     0  00:00              1.00
  CC-S1                PUMP       200.00     0  00:00              1.00
  CC-S2                PUMP       200.00     0  00:00              1.00
  JK-R1                PUMP      1000.00     0  00:00              1.00
  JK-R2                PUMP      1000.00     0  00:00              1.00
  JK-S                 PUMP       300.00     0  00:00              1.00
  XR-1                 PUMP        95.00     0  00:00              1.00
  XR-2                 PUMP        95.00     0  00:00              1.00
  XR-3                 PUMP        95.00     0  00:00              1.00
  XR-4                 PUMP        95.00     0  00:00              1.00
  
  
  ***************************
  Flow Classification Summary
  ***************************
  
  -------------------------------------------------------------------------------------
                      Adjusted    ---------- Fraction of Time in Flow Class ---------- 
                       /Actual         Up    Down  Sub   Sup   Up    Down  Norm  Inlet 
  Conduit               Length    Dry  Dry   Dry   Crit  Crit  Crit  Crit  Ltd   Ctrl  
  -------------------------------------------------------------------------------------
  1                       1.00   0.00  0.00  0.00  0.00  1.00  0.00  0.00  0.15  0.00
  WS02001211WS02001212    1.00   0.00  0.02  0.00  0.98  0.00  0.00  0.00  0.00  0.00
  WS02001212WS02001213    1.00   0.02  0.00  0.00  0.28  0.00  0.69  0.00  0.00  0.00
  WS02001213WS02003059    1.00   0.00  0.01  0.00  0.99  0.00  0.00  0.00  0.00  0.00
  WS02003059WS02003060    1.00   0.00  0.00  0.00  1.00  0.00  0.00  0.00  0.03  0.00
  WS02003060WS02003069    1.00   0.00  0.00  0.00  0.98  0.02  0.00  0.00  0.63  0.00
  WS02003066WSF200        1.00   0.13  0.00  0.00  0.00  0.87  0.00  0.00  0.66  0.00
  WS02003067WS02003066    1.00   0.10  0.02  0.00  0.88  0.00  0.00  0.00  0.00  0.00
  WS02003069WS02003072    1.00   0.00  0.00  0.00  1.00  0.00  0.00  0.00  0.69  0.00
  WS02003072WS02003073    1.00   0.00  0.00  0.00  0.00  0.00  0.00  1.00  0.00  0.00
  WS02004138WS02004139    1.00   0.00  0.00  0.00  0.97  0.01  0.00  0.02  0.98  0.00
  WS02004139WS02001211    1.00   0.00  0.00  0.00  0.99  0.00  0.00  0.00  0.00  0.00
  WS02004401WS02004402    1.00   0.02  0.00  0.00  0.98  0.00  0.00  0.00  0.00  0.00
  WS02004402WS02004403    1.00   0.02  0.00  0.00  0.97  0.00  0.00  0.00  0.00  0.00
  WS02004403WS02004404    1.00   0.00  0.03  0.00  0.97  0.00  0.00  0.00  0.00  0.00
  WS02004404WS02004405    1.00   0.00  0.00  0.00  1.00  0.00  0.00  0.00  0.01  0.00
  WS02004405WS02004406    1.00   0.00  0.00  0.00  1.00  0.00  0.00  0.00  0.00  0.00
  WS02004406WS02004407    1.00   0.00  0.05  0.00  0.95  0.00  0.00  0.00  0.00  0.00
  WS02004407WS02004409    1.00   0.05  0.00  0.00  0.94  0.01  0.00  0.00  0.94  0.00
  WS02004409WS02004410    1.00   0.05  0.00  0.00  0.95  0.00  0.00  0.00  0.03  0.00
  WS02004410WS02004411    1.00   0.05  0.00  0.00  0.95  0.00  0.00  0.00  0.01  0.00
  WS02004411WS02004412    1.00   0.05  0.00  0.00  0.95  0.00  0.00  0.00  0.00  0.00
  WS02004412WS02004413    1.00   0.05  0.00  0.00  0.94  0.00  0.00  0.00  0.01  0.00
  WS02004413WS02003067    1.00   0.06  0.04  0.00  0.00  0.00  0.90  0.00  0.00  0.00
  WS02006109WS02006110    1.00   0.00  0.01  0.00  0.98  0.00  0.01  0.00  0.00  0.00
  WS02006110WS02006113    1.00   0.01  0.01  0.00  0.98  0.00  0.00  0.00  0.00  0.00
  WS02006111WS02006112    1.00   0.02  0.00  0.00  0.98  0.00  0.00  0.00  0.98  0.00
  WS02006112WS02006115    1.00   0.02  0.00  0.00  0.97  0.00  0.00  0.00  0.00  0.00
  WS02006113WS02006111    1.00   0.02  0.00  0.00  0.00  0.98  0.00  0.00  0.10  0.00
  WS02006115WS02006116    1.00   0.02  0.00  0.00  0.97  0.00  0.00  0.01  0.00  0.00
  WS02006116WS02004401    1.00   0.02  0.00  0.00  0.98  0.00  0.00  0.00  0.00  0.00
  WS02006228WS02006109    1.00   0.00  0.00  0.00  1.00  0.00  0.00  0.00  0.00  0.00
  WS02006229WS02006228    1.00   0.00  0.00  0.00  0.99  0.00  0.00  0.01  0.00  0.00
  WS02006230WS02006229    1.00   0.00  0.00  0.00  0.99  0.00  0.00  0.01  0.02  0.00
  WS02006231WS02006230    1.00   0.00  0.00  0.00  0.28  0.00  0.72  0.00  0.00  0.00
  WS02006232WS02006231    1.00   0.00  0.00  0.00  0.99  0.00  0.01  0.00  0.00  0.00
  WS02006234WS02006232    1.00   0.00  0.00  0.00  1.00  0.00  0.00  0.00  0.28  0.00
  WS02006235WS02006234    1.00   0.00  0.00  0.00  0.66  0.00  0.34  0.00  0.00  0.00
  WS02006238WS02006235    1.00   0.00  0.00  0.00  1.00  0.00  0.00  0.00  0.00  0.00
  WS02006239WS02006238    1.00   0.00  0.00  0.00  1.00  0.00  0.00  0.00  0.42  0.00
  WS02006240WS02006239    1.00   0.00  0.00  0.00  0.47  0.00  0.00  0.53  0.01  0.00
  WS02006242WS02006240    1.00   0.00  0.00  0.00  0.99  0.00  0.00  0.00  0.00  0.00
  WS02006243WS02006242    1.00   0.00  0.00  0.00  0.99  0.00  0.00  0.01  0.66  0.00
  WS02006245WS02006243    1.00   0.00  0.00  0.00  0.54  0.00  0.00  0.46  0.01  0.00
  WS02006247WS02006245    1.00   0.00  0.00  0.00  0.97  0.00  0.00  0.03  0.00  0.00
  WS02006248WS02006247    1.00   0.00  0.00  0.00  0.99  0.00  0.00  0.01  0.25  0.00
  WS02006249WS02006248    1.00   0.00  0.00  0.00  0.39  0.00  0.61  0.00  0.00  0.00
  WS02006251WS02006249    1.00   0.00  0.00  0.00  0.99  0.01  0.00  0.00  0.64  0.00
  WS02006252WS02006251    1.00   0.00  0.67  0.00  0.19  0.00  0.14  0.00  0.01  0.00
  WS02006256WS02006235    1.00   0.00  0.00  0.00  0.99  0.01  0.00  0.00  0.00  0.00
  WSF200WS02003060        1.00   0.00  0.13  0.00  0.61  0.27  0.00  0.00  0.59  0.00
  YS02001580YS02001583    1.00   1.00  0.00  0.00  0.00  0.00  0.00  0.00  0.00  0.00
  YS02001583YS02001586    1.00   0.47  0.53  0.00  0.00  0.00  0.00  0.00  0.00  0.00
  YS02001586YS02001590    1.00   0.13  0.00  0.00  0.41  0.03  0.00  0.43  0.45  0.00
  YS02001590YS02001593    1.00   0.13  0.00  0.00  0.00  0.00  0.87  0.00  0.00  0.00
  YS02001593YS02001596    1.00   0.13  0.00  0.00  0.05  0.10  0.00  0.72  0.13  0.00
  YS02001596YS02001600    1.00   0.13  0.00  0.00  0.25  0.01  0.00  0.61  0.08  0.00
  YS02001600YS02001601    1.00   0.13  0.01  0.00  0.87  0.00  0.00  0.00  0.58  0.00
  YS02001601YS02001602    1.00   0.13  0.00  0.00  0.87  0.00  0.00  0.00  0.00  0.00
  YS02001602YS02001605    1.00   0.13  0.00  0.00  0.87  0.00  0.00  0.00  0.00  0.00
  YS02001605YS02001607    1.00   0.13  0.00  0.00  0.87  0.00  0.00  0.00  0.00  0.00
  YS02001607YS02001610    1.00   0.13  0.00  0.00  0.87  0.00  0.00  0.00  0.00  0.00
  YS02001610YS02001613    1.00   0.13  0.00  0.00  0.87  0.00  0.00  0.00  0.00  0.00
  YS02001613YS02001616    1.00   0.13  0.00  0.00  0.87  0.00  0.00  0.00  0.00  0.00
  YS02001616YS02001619    1.00   0.13  0.00  0.00  0.87  0.00  0.00  0.00  0.00  0.00
  YS02001619YS02001622    1.00   0.13  0.00  0.00  0.87  0.00  0.00  0.00  0.34  0.00
  YS02001622YS02001625    1.00   0.13  0.00  0.00  0.87  0.01  0.00  0.00  0.01  0.00
  YS02001625YS02001629    1.00   0.13  0.02  0.00  0.18  0.00  0.67  0.00  0.00  0.00
  YS02001629YS02163301    1.00   0.13  0.00  0.00  0.86  0.00  0.00  0.00  0.00  0.00
  YS02001633YS02163601    1.00   0.00  0.01  0.00  0.99  0.00  0.00  0.00  0.13  0.00
  YS02001641YS02001644    1.00   0.00  0.01  0.00  0.99  0.00  0.00  0.00  0.00  0.00
  YS02001644YS02001647    1.00   0.00  0.14  0.00  0.86  0.00  0.00  0.00  0.00  0.00
  YS02001647YS02001649    1.00   0.00  0.14  0.00  0.49  0.37  0.00  0.00  0.57  0.00
  YS02001649YS02001757    1.00   0.00  0.00  0.00  0.61  0.39  0.00  0.00  0.55  0.00
  YS02001652YS02001649    1.00   0.00  0.00  0.00  0.99  0.01  0.00  0.00  0.71  0.00
  YS02001655YS02001652    1.00   0.00  0.00  0.00  0.19  0.04  0.00  0.77  0.21  0.00
  YS02001658YS02001655    1.00   0.00  0.13  0.00  0.54  0.33  0.00  0.00  0.83  0.00
  YS02001661YS02001658    1.00   0.13  0.00  0.00  0.43  0.44  0.00  0.00  0.82  0.00
  YS02001664YS02001661    1.00   0.13  0.00  0.00  0.66  0.21  0.00  0.00  0.87  0.00
  YS02001745YS02001748    1.00   0.00  0.00  0.00  0.00  0.00  0.00  1.00  0.00  0.00
  YS02001748YS02001751    1.00   0.00  0.00  0.00  0.70  0.30  0.00  0.00  0.81  0.00
  YS02001751YS02001754    1.00   0.00  0.00  0.00  0.04  0.03  0.00  0.93  0.07  0.00
  YS02001754YS02001757    1.00   0.00  0.00  0.00  0.99  0.01  0.00  0.00  0.84  0.00
  YS02001757CaochengTiaoxuchi    1.00   0.00  0.00  0.00  1.00  0.00  0.00  0.00  0.84  0.00
  YS02001759YS02001757    1.00   0.00  0.00  0.00  0.99  0.01  0.00  0.00  0.61  0.00
  YS02001762YS02001759    1.00   0.00  0.00  0.00  1.00  0.00  0.00  0.00  0.01  0.00
  YS02001765YS02001762    1.00   0.00  0.00  0.00  1.00  0.00  0.00  0.00  0.70  0.00
  YS02001767YS02001765    1.00   0.00  0.00  0.00  1.00  0.00  0.00  0.00  0.00  0.00
  YS02001770YS02001767    1.00   0.00  0.00  0.00  1.00  0.00  0.00  0.00  0.00  0.00
  YS02001774YS02001770    1.00   0.00  0.13  0.00  0.62  0.00  0.25  0.00  0.01  0.00
  YS02001779YS02001774    1.00   0.00  0.00  0.00  1.00  0.00  0.00  0.00  0.74  0.00
  YS02001783YS02001784    1.00   0.00  0.14  0.00  0.86  0.00  0.00  0.00  0.56  0.00
  YS02001784YS02001785    1.00   0.00  0.00  0.00  1.00  0.00  0.00  0.00  0.13  0.00
  YS02001786YS02001788    1.00   0.00  0.00  0.00  0.70  0.30  0.00  0.00  0.00  0.00
  YS02001788YS02001790    1.00   0.00  0.00  0.00  0.15  0.85  0.00  0.00  0.76  0.00
  YS02001790YS02001791    1.00   0.00  0.00  0.00  0.01  0.99  0.00  0.00  0.28  0.00
  YS02001791YS02001793    1.00   0.00  0.00  0.00  0.00  1.00  0.00  0.00  0.00  0.00
  YS02001793JiankangQianchi    1.00   0.00  0.00  0.00  1.00  0.00  0.00  0.00  1.00  0.00
  YS02001882YS02001884    1.00   0.13  0.00  0.00  0.86  0.00  0.00  0.00  0.00  0.00
  YS02001884YS02001887    1.00   0.06  0.05  0.00  0.89  0.00  0.00  0.00  0.00  0.00
  YS02001887YS02001890    1.00   0.00  0.00  0.00  0.97  0.00  0.03  0.00  0.00  0.00
  YS02001890YS02001895    1.00   0.00  0.13  0.00  0.86  0.00  0.00  0.00  0.00  0.00
  YS02001895YS02001898    1.00   0.14  0.00  0.00  0.85  0.00  0.01  0.00  0.00  0.00
  YS02001898YS02001901    1.00   0.14  0.00  0.00  0.86  0.00  0.00  0.00  0.00  0.00
  YS02001901YS02001904    1.00   0.14  0.00  0.00  0.86  0.00  0.00  0.00  0.00  0.00
  YS02001904YS02001907    1.00   0.00  0.14  0.00  0.86  0.00  0.00  0.00  0.00  0.00
  YS02001907YS02006553    1.00   0.00  0.02  0.00  0.98  0.00  0.00  0.00  0.00  0.00
  YS02001910YS02001907    1.00   0.00  0.00  0.00  0.97  0.00  0.00  0.03  0.11  0.00
  YS02001915YS02001910    1.00   0.00  0.00  0.00  0.97  0.03  0.00  0.00  0.11  0.00
  YS02001918YS02001915    1.00   0.00  0.01  0.00  0.98  0.02  0.00  0.00  0.83  0.00
  YS02001920YS02001918    1.00   0.00  0.01  0.00  0.99  0.00  0.00  0.00  0.00  0.00
  YS02001923YS02001920    1.00   0.00  0.00  0.00  1.00  0.00  0.00  0.00  1.00  0.00
  YS02001926YS02001923    1.00   0.00  0.07  0.00  0.00  0.00  0.93  0.00  0.00  0.00
  YS02001929YS02001926    1.00   0.00  0.13  0.00  0.87  0.00  0.00  0.00  0.87  0.00
  YS02006553YS02006556    1.00   0.01  0.00  0.00  0.99  0.00  0.00  0.00  0.03  0.00
  YS02006556YS02006558    1.00   0.00  0.00  0.00  1.00  0.00  0.00  0.00  0.00  0.00
  YS02006558YS02006561    1.00   0.14  0.00  0.00  0.00  0.86  0.00  0.00  0.29  0.00
  YS02006561YS02001783    1.00   0.14  0.00  0.00  0.00  0.85  0.00  0.00  0.76  0.00
  YS02163301YS02001633    1.00   0.00  0.13  0.00  0.87  0.00  0.00  0.00  0.00  0.00
  YS02163601YS02164001    1.00   0.00  0.08  0.00  0.92  0.00  0.00  0.00  0.00  0.00
  YS02164001YS02001641    1.00   0.01  0.07  0.00  0.92  0.00  0.00  0.00  0.05  0.00
  
  
  *************************
  Conduit Surcharge Summary
  *************************
  
  ----------------------------------------------------------------------------
                                                           Hours        Hours 
                         --------- Hours Full --------   Above Full   Capacity
  Conduit                Both Ends  Upstream  Dnstream   Normal Flow   Limited
  ----------------------------------------------------------------------------
  WS02003072WS02003073        0.01      0.01      0.01      2.26         0.01
  WS02004403WS02004404        0.01      0.01      0.10      0.01         0.01
  WS02004404WS02004405        0.01      0.10      0.01      2.52         0.01
  WS02004405WS02004406        0.01      0.01      0.01      1.45         0.01
  WS02006109WS02006110        1.48      1.48      2.14      1.50         0.01
  WS02006110WS02006113        0.01      0.01      2.10      0.01         0.01
  WS02006111WS02006112        0.01      0.01      2.23      0.01         0.01
  WS02006112WS02006115        0.01      0.01      1.52      0.01         0.01
  WS02006228WS02006109        2.05      2.14      2.05      2.33         2.05
  WS02006229WS02006228        2.05      2.08      2.05      2.25         2.04
  WS02006230WS02006229        2.20      2.22      2.20      2.98         2.20
  WS02006231WS02006230        1.49      1.49      1.52      2.69         0.01
  WS02006232WS02006231        1.50      1.50      2.14      1.52         0.01
  WS02006234WS02006232        2.02      2.02      2.14      1.52         1.51
  WS02006235WS02006234        1.58      1.58      2.08      2.63         0.01
  WS02006238WS02006235        2.09      2.09      2.15      0.01         0.01
  WS02006239WS02006238        2.07      2.09      2.10      2.08         2.01
  WS02006240WS02006239        2.02      2.03      2.02      2.08         1.99
  WS02006242WS02006240        2.02      2.02      2.06      2.11         0.01
  WS02006243WS02006242        2.04      2.04      2.05      0.01         0.01
  WS02006245WS02006243        2.03      2.04      2.04      0.59         0.53
  WS02006247WS02006245        2.03      2.04      2.03      2.41         2.03
  WS02006248WS02006247        2.03      2.03      2.04      0.01         0.01
  WS02006249WS02006248        2.03      2.03      2.03      2.40         0.01
  WS02006251WS02006249        2.03      2.03      2.03      2.11         2.01
  WS02006252WS02006251        2.18      2.18      2.18      2.18         0.01
  WS02006256WS02006235        2.64      2.66      4.62      1.87         0.01
  YS02001596YS02001600        0.01      0.01      0.36      0.01         0.01
  YS02001600YS02001601        1.11      1.11      1.72      0.01         0.01
  YS02001601YS02001602        1.48      1.48      1.80      0.64         0.01
  YS02001602YS02001605        1.44      1.44      1.48      2.41         0.01
  YS02001605YS02001607        1.40      1.44      1.40      1.69         1.40
  YS02001641YS02001644        0.01      0.01      0.01      1.92         0.01
  YS02001757CaochengTiaoxuchi        0.01      0.01      1.62      0.01         0.01
  YS02001784YS02001785        0.01      0.01      0.01      0.04         0.01
  YS02001793JiankangQianchi        0.01      0.01      7.70      0.01         0.01
  YS02001907YS02006553        0.15      0.15      0.54      0.01         0.01
  YS02006558YS02006561        0.01      0.01      0.01      0.01         0.01
  
  
  ***************
  Pumping Summary
  ***************
  
  ---------------------------------------------------------------------------------------------------------
                                                  Min       Avg       Max     Total     Power    % Time Off
                        Percent   Number of      Flow      Flow      Flow    Volume     Usage    Pump Curve
  Pump                 Utilized   Start-Ups       LPS       LPS       LPS  10^6 ltr     Kw-hr    Low   High
  ---------------------------------------------------------------------------------------------------------
  CC-R1                   23.83          18      0.00    683.00    683.00     4.688     83.72    0.0   29.2
  CC-R2                    1.04           1      0.00    683.00    683.00     0.205      3.46    0.0  100.0
  CC-S1                   30.87          14      0.00    200.00    200.00     1.778     11.17    0.0    0.0
  CC-S2                   27.24          14      0.00    200.00    200.00     1.569      9.91    0.0    0.0
  JK-R1                    2.01           6      0.00   1000.00   1000.00     0.580      5.77    0.0    0.0
  JK-R2                    0.16           1      0.00   1000.00   1000.00     0.047      0.36    0.0    0.0
  JK-S                    23.28           9      0.00    300.00    300.00     2.011     32.34    0.0    0.0
  XR-1                    97.91           2      0.00     95.00     95.00     2.679      9.60    0.0    0.0
  XR-2                    93.94           2      0.00     95.00     95.00     2.570      8.76    0.0    0.0
  XR-3                     0.00           1      0.00     95.00     95.00     0.000      0.00    0.0    0.0
  XR-4                     0.00           1      0.00     95.00     95.00     0.000      0.00    0.0    0.0
  

  Analysis begun on:  Wed Nov  5 16:19:02 2025
  Analysis ended on:  Wed Nov  5 16:19:05 2025
  Total elapsed time: 00:00:03