
  EPA STORM WATER MANAGEMENT MODEL - VERSION 5.2 (Build 5.2.4)
  PYSWMM TOOLKIT API - VERSION v1.0 (2023-11-27)
  ------------------------------------------------------------

  WARNING 04: minimum elevation drop used for Conduit WS02004404WS02004405
  WARNING 03: negative offset ignored for Link YS02001904YS02001907
  
  ****************
  Analysis Options
  ****************
  Flow Units ............... LPS
  Process Models:
    Rainfall/Runoff ........ YES
    RDII ................... NO
    Snowmelt ............... NO
    Groundwater ............ NO
    Flow Routing ........... YES
    Ponding Allowed ........ NO
    Water Quality .......... NO
  Infiltration Method ...... HORTON
  Flow Routing Method ...... DYNWAVE
  Surcharge Method ......... EXTRAN
  Starting Date ............ 08/28/2015 08:00:00
  Ending Date .............. 08/28/2015 16:00:00
  Antecedent Dry Days ...... 8.0
  Report Time Step ......... 00:01:00
  Wet Time Step ............ 00:01:00
  Dry Time Step ............ 00:01:00
  Routing Time Step ........ 30.00 sec
  Variable Time Step ....... YES
  Maximum Trials ........... 8
  Number of Threads ........ 4
  Head Tolerance ........... 0.001500 m
  
  
  **************************        Volume         Depth
  Runoff Quantity Continuity     hectare-m            mm
  **************************     ---------       -------
  Initial LID Storage ......         0.049         1.488
  Total Precipitation ......         1.629        49.122
  Evaporation Loss .........         0.000         0.000
  Infiltration Loss ........         0.075         2.260
  Surface Runoff ...........         1.186        35.743
  Final Storage ............         0.419        12.642
  Continuity Error (%) .....        -0.069
  
  
  **************************        Volume        Volume
  Flow Routing Continuity        hectare-m      10^6 ltr
  **************************     ---------     ---------
  Dry Weather Inflow .......         0.602         6.020
  Wet Weather Inflow .......         1.186        11.856
  Groundwater Inflow .......         0.000         0.000
  RDII Inflow ..............         0.000         0.000
  External Inflow ..........         0.105         1.045
  External Outflow .........         1.620        16.198
  Flooding Loss ............         0.247         2.472
  Evaporation Loss .........         0.000         0.000
  Exfiltration Loss ........         0.000         0.000
  Initial Stored Volume ....         0.303         3.031
  Final Stored Volume ......         0.333         3.330
  Continuity Error (%) .....        -0.221
  
  
  *************************
  Highest Continuity Errors
  *************************
  Node YS02001884 (5.08%)
  Node YS02001583 (-4.62%)
  Node YS02001774 (1.53%)
  
  
  ***************************
  Time-Step Critical Elements
  ***************************
  Link WS02004404WS02004405 (42.61%)
  Link WS02006238WS02006235 (14.59%)
  Link WS02006252WS02006251 (14.11%)
  Link YS02001791YS02001793 (9.94%)
  Link WS02003066WSF200 (5.32%)
  
  
  ********************************
  Highest Flow Instability Indexes
  ********************************
  Link WS02006113WS02006111 (24)
  Link WS02006238WS02006235 (22)
  Link WS02006111WS02006112 (17)
  Link WS02006252WS02006251 (16)
  Link WS02006235WS02006234 (15)
  
  
  *********************************
  Most Frequent Nonconverging Nodes
  *********************************
  Node CC-1 (10.16%)
  Node CC-2 (10.16%)
  Node JK-1 (10.16%)
  Node JK-2 (10.16%)
  Node WSC (10.16%)
  
  
  *************************
  Routing Time Step Summary
  *************************
  Minimum Time Step           :     0.02 sec
  Average Time Step           :     3.51 sec
  Maximum Time Step           :     7.04 sec
  % of Time in Steady State   :     0.00
  Average Iterations per Step :     3.00
  % of Steps Not Converging   :    10.16
  Time Step Frequencies       :
     30.000 - 13.228 sec      :     0.00 %
     13.228 -  5.833 sec      :    30.21 %
      5.833 -  2.572 sec      :    23.51 %
      2.572 -  1.134 sec      :    25.86 %
      1.134 -  0.500 sec      :    20.43 %
  
  
  ***************************
  Subcatchment Runoff Summary
  ***************************
  
  ------------------------------------------------------------------------------------------------------------------------------
                            Total      Total      Total      Total     Imperv       Perv      Total       Total     Peak  Runoff
                           Precip      Runon       Evap      Infil     Runoff     Runoff     Runoff      Runoff   Runoff   Coeff
  Subcatchment                 mm         mm         mm         mm         mm         mm         mm    10^6 ltr      LPS
  ------------------------------------------------------------------------------------------------------------------------------
  sub60                     49.12       0.00       0.00       1.33      32.44       3.22      35.66        0.47   365.94   0.726
  sub61                     49.12       0.00       0.00       2.05      32.41       4.78      37.19        0.68   534.14   0.757
  sub62                     49.12       0.00       0.00       0.90      34.54       2.19      36.73        1.01   728.99   0.748
  sub63                     49.12       0.00       0.00       3.78      27.76       7.88      35.64        0.81   606.34   0.725
  sub64                     49.12       0.00       0.00       1.81      31.60       3.93      35.53        0.85   592.30   0.723
  sub65                     49.12       0.00       0.00       1.66      34.10       3.59      37.69        1.04   688.50   0.767
  sub66                     49.12       0.00       0.00       4.45      26.83       6.84      33.67        1.57   890.22   0.685
  sub67                     49.12       0.00       0.00       0.89      35.42       2.27      37.70        0.70   565.95   0.767
  sub68                     49.12       0.00       0.00       1.57      31.28       3.67      34.95        0.96   728.16   0.711
  sub69                     49.12       0.00       0.00       1.44      33.01       4.40      37.41        1.39   890.42   0.762
  sub70                     49.12       0.00       0.00       4.89      26.43       8.79      35.22        1.02   512.43   0.717
  sub71                     49.12       0.00       0.00       0.84      31.38       1.97      33.35        0.87   598.44   0.679
  sub72                     49.12       0.00       0.00       0.80      33.88       1.83      35.71        0.49   305.73   0.727
  

  ***********************
  LID Performance Summary
  ***********************

  --------------------------------------------------------------------------------------------------------------------
                                         Total      Evap     Infil   Surface    Drain    Initial     Final  Continuity
                                        Inflow      Loss      Loss   Outflow   Outflow   Storage   Storage       Error
  Subcatchment      LID Control             mm        mm        mm        mm        mm        mm        mm           %
  --------------------------------------------------------------------------------------------------------------------
  sub60             GreenRoof            49.12      0.00      0.00      0.00      0.00      7.05     56.29       -0.21
  sub61             GreenRoof            49.12      0.00      0.00      0.00      0.00      7.05     56.29       -0.21
  sub62             GreenRoof            49.12      0.00      0.00      0.00      0.00      7.05     56.29       -0.21
  sub63             GreenRoof            49.12      0.00      0.00      0.00      0.00      7.05     56.29       -0.21
  sub64             GreenRoof            49.12      0.00      0.00      0.00      0.00      7.05     56.29       -0.21
  sub65             GreenRoof            49.12      0.00      0.00      0.00      0.00      7.05     56.29       -0.21
  sub66             GreenRoof            49.12      0.00      0.00      0.00      0.00      7.05     56.29       -0.21
  sub67             GreenRoof            49.12      0.00      0.00      0.00      0.00      7.05     56.29       -0.21
  sub68             GreenRoof            49.12      0.00      0.00      0.00      0.00      7.05     56.29       -0.21
  sub69             GreenRoof            49.12      0.00      0.00      0.00      0.00      7.05     56.29       -0.21
  sub70             GreenRoof            49.12      0.00      0.00      0.00      0.00      7.05     56.29       -0.21
  sub71             GreenRoof            49.12      0.00      0.00      0.00      0.00      7.05     56.29       -0.21
  sub72             GreenRoof            49.12      0.00      0.00      0.00      0.00      7.05     56.29       -0.21
  
  ******************
  Node Depth Summary
  ******************
  
  ---------------------------------------------------------------------------------
                                 Average  Maximum  Maximum  Time of Max    Reported
                                   Depth    Depth      HGL   Occurrence   Max Depth
  Node                 Type       Meters   Meters   Meters  days hr:min      Meters
  ---------------------------------------------------------------------------------
  WS02001211           JUNCTION     0.60     0.64     5.48     0  02:54        0.64
  WS02001212           JUNCTION     0.33     0.38     5.45     0  02:53        0.38
  WS02001213           JUNCTION     0.53     0.65     5.41     0  02:51        0.65
  WS02003059           JUNCTION     0.59     0.72     5.40     0  02:52        0.72
  WS02003060           JUNCTION     0.29     0.45     5.38     0  02:49        0.45
  WS02003066           JUNCTION     0.15     0.30     5.85     0  02:49        0.30
  WS02003067           JUNCTION     0.42     0.70     6.02     0  02:49        0.70
  WS02003069           JUNCTION     0.33     0.51     5.10     0  02:50        0.51
  WS02003072           JUNCTION     0.39     0.58     4.95     0  02:50        0.58
  WS02003073           JUNCTION     0.23     0.35     4.41     0  02:51        0.35
  WS02004138           JUNCTION     0.13     0.14     7.39     0  00:29        0.14
  WS02004139           JUNCTION     0.54     0.58     5.49     0  02:55        0.58
  WS02004401           JUNCTION     0.51     0.85     6.85     0  02:46        0.85
  WS02004402           JUNCTION     0.54     0.88     6.84     0  02:46        0.88
  WS02004403           JUNCTION     0.56     0.89     6.82     0  02:46        0.89
  WS02004404           JUNCTION     0.64     0.96     6.81     0  02:46        0.96
  WS02004405           JUNCTION     0.64     0.96     6.81     0  02:46        0.96
  WS02004406           JUNCTION     0.65     0.96     6.79     0  02:47        0.96
  WS02004407           JUNCTION     0.13     0.30     6.61     0  02:47        0.30
  WS02004409           JUNCTION     0.29     0.67     6.44     0  02:47        0.67
  WS02004410           JUNCTION     0.32     0.68     6.40     0  02:48        0.68
  WS02004411           JUNCTION     0.35     0.69     6.37     0  02:48        0.69
  WS02004412           JUNCTION     0.37     0.70     6.34     0  02:48        0.70
  WS02004413           JUNCTION     0.53     0.86     6.33     0  02:48        0.86
  WS02006109           JUNCTION     0.57     1.09     7.71     0  02:17        0.98
  WS02006110           JUNCTION     0.58     1.08     7.67     0  02:17        0.95
  WS02006111           JUNCTION     0.14     0.29     6.99     0  02:49        0.29
  WS02006112           JUNCTION     0.66     1.06     6.95     0  02:32        1.06
  WS02006113           JUNCTION     0.21     0.46     7.35     0  02:49        0.46
  WS02006115           JUNCTION     0.39     0.75     6.89     0  02:45        0.75
  WS02006116           JUNCTION     0.48     0.83     6.87     0  02:46        0.83
  WS02006228           JUNCTION     0.56     1.09     7.75     0  02:17        1.02
  WS02006229           JUNCTION     0.54     1.10     7.80     0  02:17        1.04
  WS02006230           JUNCTION     0.54     1.24     7.99     0  02:17        1.14
  WS02006231           JUNCTION     0.35     1.14     8.27     0  03:30        0.90
  WS02006232           JUNCTION     0.48     1.73     8.77     0  03:30        1.11
  WS02006234           JUNCTION     0.41     1.83     8.98     0  03:30        1.15
  WS02006235           JUNCTION     0.45     1.98     9.14     0  03:30        1.25
  WS02006238           JUNCTION     0.48     2.03     9.17     0  03:30        1.28
  WS02006239           JUNCTION     0.44     1.94     9.15     0  03:30        1.27
  WS02006240           JUNCTION     0.41     1.75     9.04     0  03:30        1.35
  WS02006242           JUNCTION     0.46     1.55     8.82     0  02:41        1.55
  WS02006243           JUNCTION     0.39     1.48     8.90     0  02:41        1.48
  WS02006245           JUNCTION     0.39     1.53     9.01     0  02:41        1.53
  WS02006247           JUNCTION     0.40     1.43     8.93     0  02:41        1.43
  WS02006248           JUNCTION     0.37     1.10     8.69     0  02:16        1.10
  WS02006249           JUNCTION     0.40     1.09     8.69     0  02:16        1.09
  WS02006251           JUNCTION     0.39     1.34     9.01     0  02:16        1.13
  WS02006252           JUNCTION     0.27     1.50     9.74     0  00:00        0.69
  WS02006256           JUNCTION     1.13     2.35     9.28     0  00:00        2.35
  WSF200               JUNCTION     0.12     0.31     5.54     0  02:49        0.31
  YS02001580           JUNCTION     0.08     1.05     9.59     0  02:19        0.77
  YS02001583           JUNCTION     0.10     1.02     9.52     0  02:19        0.81
  YS02001586           JUNCTION     0.19     1.13     9.30     0  02:19        1.13
  YS02001590           JUNCTION     0.30     1.40     9.26     0  02:23        1.40
  YS02001593           JUNCTION     0.22     1.30     9.16     0  02:19        1.29
  YS02001596           JUNCTION     0.32     1.66     9.08     0  02:19        1.65
  YS02001600           JUNCTION     0.41     1.87     9.00     0  02:19        1.87
  YS02001601           JUNCTION     0.60     2.06     8.90     0  02:18        2.06
  YS02001602           JUNCTION     0.51     1.87     8.77     0  02:18        1.87
  YS02001605           JUNCTION     0.47     1.78     8.68     0  02:23        1.78
  YS02001607           JUNCTION     0.45     1.64     8.49     0  02:23        1.64
  YS02001610           JUNCTION     0.49     1.68     8.48     0  02:18        1.68
  YS02001613           JUNCTION     0.45     1.70     8.54     0  02:23        1.70
  YS02001616           JUNCTION     0.38     1.61     8.52     0  02:23        1.61
  YS02001619           JUNCTION     0.36     1.61     8.54     0  02:23        1.61
  YS02001622           JUNCTION     0.35     1.58     8.48     0  02:23        1.58
  YS02001625           JUNCTION     0.60     1.78     8.38     0  02:18        1.78
  YS02001629           JUNCTION     0.48     1.85     8.40     0  02:18        1.85
  YS02001633           JUNCTION     0.56     2.08     8.53     0  02:23        2.08
  YS02001641           JUNCTION     0.53     2.00     8.44     0  02:23        2.00
  YS02001644           JUNCTION     0.53     1.92     8.35     0  02:23        1.92
  YS02001647           JUNCTION     0.30     1.77     8.38     0  02:23        1.77
  YS02001649           JUNCTION     0.35     1.97     8.36     0  02:24        1.90
  YS02001652           JUNCTION     0.23     1.85     8.44     0  02:24        1.70
  YS02001655           JUNCTION     0.17     1.81     8.66     0  02:22        1.48
  YS02001658           JUNCTION     0.12     1.71     8.85     0  02:23        1.23
  YS02001661           JUNCTION     0.15     1.37     8.77     0  02:24        1.01
  YS02001664           JUNCTION     0.06     0.56     8.48     0  02:24        0.54
  YS02001745           JUNCTION     0.06     0.73     8.24     0  02:23        0.73
  YS02001748           JUNCTION     0.11     1.64     8.72     0  02:23        1.15
  YS02001751           JUNCTION     0.14     1.64     8.52     0  02:23        1.33
  YS02001754           JUNCTION     0.19     1.71     8.32     0  02:23        1.59
  YS02001757           JUNCTION     0.36     1.98     8.24     0  02:23        1.92
  YS02001759           JUNCTION     0.30     2.04     8.40     0  02:23        2.04
  YS02001762           JUNCTION     0.29     2.08     8.48     0  02:23        2.08
  YS02001765           JUNCTION     0.27     2.09     8.54     0  02:23        2.09
  YS02001767           JUNCTION     0.27     2.03     8.52     0  02:23        2.03
  YS02001770           JUNCTION     0.28     1.95     8.44     0  02:23        1.95
  YS02001774           JUNCTION     0.35     1.98     8.41     0  02:23        1.95
  YS02001779           JUNCTION     0.18     1.68     8.37     0  02:21        1.68
  YS02001783           JUNCTION     0.26     1.32     7.46     0  02:22        1.21
  YS02001784           JUNCTION     0.28     1.18     7.25     0  02:22        1.10
  YS02001786           JUNCTION     0.23     0.92     6.95     0  02:22        0.87
  YS02001788           JUNCTION     0.17     0.62     6.60     0  02:24        0.62
  YS02001790           JUNCTION     0.20     0.72     6.36     0  02:27        0.69
  YS02001791           JUNCTION     0.13     0.44     5.91     0  02:30        0.44
  YS02001793           JUNCTION     0.07     0.29     5.13     0  02:25        0.28
  YS02001882           JUNCTION     0.31     1.83     8.55     0  02:23        1.83
  YS02001884           JUNCTION     0.40     1.93     8.55     0  02:23        1.93
  YS02001887           JUNCTION     0.48     2.00     8.53     0  02:23        2.00
  YS02001890           JUNCTION     0.51     1.81     8.32     0  02:22        1.81
  YS02001895           JUNCTION     0.29     1.57     8.31     0  02:23        1.56
  YS02001898           JUNCTION     0.29     1.57     8.31     0  02:23        1.55
  YS02001901           JUNCTION     0.40     1.69     8.29     0  02:23        1.67
  YS02001904           JUNCTION     0.38     1.65     8.28     0  02:23        1.63
  YS02001907           JUNCTION     0.69     1.96     8.25     0  02:22        1.96
  YS02001910           JUNCTION     0.50     2.10     8.61     0  02:23        2.10
  YS02001915           JUNCTION     0.31     2.00     8.72     0  02:23        2.00
  YS02001918           JUNCTION     0.15     1.81     8.88     0  02:23        1.39
  YS02001920           JUNCTION     0.23     2.14     9.14     0  02:23        1.47
  YS02001923           JUNCTION     0.11     2.03     9.29     0  02:23        1.24
  YS02001926           JUNCTION     0.16     1.90     9.35     0  02:23        1.10
  YS02001929           JUNCTION     0.08     1.78     9.47     0  02:23        0.91
  YS02006553           JUNCTION     0.70     2.00     8.28     0  02:22        1.96
  YS02006556           JUNCTION     0.67     1.99     8.30     0  02:22        1.93
  YS02006558           JUNCTION     0.71     2.03     8.30     0  02:22        1.97
  YS02006561           JUNCTION     0.16     1.04     7.70     0  02:22        0.88
  YS02163301           JUNCTION     0.50     1.97     8.49     0  02:23        1.97
  YS02163601           JUNCTION     0.59     2.08     8.48     0  02:23        2.08
  YS02164001           JUNCTION     0.52     2.01     8.47     0  02:23        2.01
  CC-1                 OUTFALL      0.00     0.00     0.00     0  00:00        0.00
  CC-2                 OUTFALL      0.00     0.00     0.00     0  00:00        0.00
  JK-1                 OUTFALL      0.00     0.00     0.00     0  00:00        0.00
  JK-2                 OUTFALL      0.00     0.00     0.00     0  00:00        0.00
  WSC                  OUTFALL      0.23     0.35     1.02     0  02:51        0.35
  CC-storage           STORAGE      0.81     1.56     7.06     0  02:40        1.56
  JK-storage           STORAGE      2.61     4.23     5.03     0  02:25        4.21
  XR-storage           STORAGE      7.82     9.26     7.26     0  08:00        9.26
  
  
  *******************
  Node Inflow Summary
  *******************
  
  -------------------------------------------------------------------------------------------------
                                  Maximum  Maximum                  Lateral       Total        Flow
                                  Lateral    Total  Time of Max      Inflow      Inflow     Balance
                                   Inflow   Inflow   Occurrence      Volume      Volume       Error
  Node                 Type           LPS      LPS  days hr:min    10^6 ltr    10^6 ltr     Percent
  -------------------------------------------------------------------------------------------------
  WS02001211           JUNCTION      7.35   200.50     0  03:25       0.212        5.44       0.611
  WS02001212           JUNCTION      0.00   202.69     0  03:25           0        5.41       0.290
  WS02001213           JUNCTION      0.00   204.41     0  03:44           0        5.39       0.331
  WS02003059           JUNCTION      0.00   209.53     0  03:44           0        5.38       0.592
  WS02003060           JUNCTION     16.53   751.18     0  02:51       0.476        8.85       0.158
  WS02003066           JUNCTION      0.00   536.89     0  02:49           0        3.02       0.039
  WS02003067           JUNCTION      0.00   536.85     0  02:49           0        3.03       0.133
  WS02003069           JUNCTION      0.32   751.26     0  02:50     0.00922        8.83       0.168
  WS02003072           JUNCTION      0.00   751.12     0  02:50           0        8.82       0.229
  WS02003073           JUNCTION      1.82   752.85     0  02:51      0.0524        8.85       0.235
  WS02004138           JUNCTION      0.00   380.00     0  00:00           0        5.25       0.053
  WS02004139           JUNCTION      0.32   191.16     0  00:29     0.00924        5.26       0.509
  WS02004401           JUNCTION      0.00   538.95     0  02:46           0        3.12       0.316
  WS02004402           JUNCTION      0.00   538.59     0  02:46           0        3.11       0.323
  WS02004403           JUNCTION      0.00   538.42     0  02:46           0         3.1       0.317
  WS02004404           JUNCTION      0.16   538.09     0  02:46     0.00467         3.1       0.265
  WS02004405           JUNCTION      0.04   538.01     0  02:46      0.0011        3.09       0.397
  WS02004406           JUNCTION      0.00   538.39     0  02:46           0        3.08       0.663
  WS02004407           JUNCTION      0.00   537.73     0  02:47           0        3.06       0.030
  WS02004409           JUNCTION      0.00   537.43     0  02:47           0        3.06       0.073
  WS02004410           JUNCTION      0.00   537.28     0  02:47           0        3.05       0.127
  WS02004411           JUNCTION      0.00   537.13     0  02:48           0        3.05       0.167
  WS02004412           JUNCTION      0.00   537.08     0  02:48           0        3.05       0.229
  WS02004413           JUNCTION      0.00   537.04     0  02:48           0        3.04       0.412
  WS02006109           JUNCTION      1.23   547.35     0  02:17      0.0354        3.17       0.265
  WS02006110           JUNCTION      0.00   547.71     0  03:21           0        3.16       0.199
  WS02006111           JUNCTION      0.00   559.87     0  03:00           0        3.15       0.020
  WS02006112           JUNCTION      0.00   542.46     0  02:33           0        3.15       0.547
  WS02006113           JUNCTION      0.00   565.52     0  02:17           0        3.15       0.050
  WS02006115           JUNCTION      0.00   547.47     0  02:32           0        3.13       0.197
  WS02006116           JUNCTION      0.00   540.44     0  02:45           0        3.13       0.149
  WS02006228           JUNCTION      0.00   546.20     0  02:17           0        3.13       0.108
  WS02006229           JUNCTION      0.00   546.08     0  02:17           0        3.14       0.125
  WS02006230           JUNCTION     10.28   580.96     0  03:25       0.296        3.14       0.170
  WS02006231           JUNCTION      0.00   599.43     0  03:30           0        2.85      -0.070
  WS02006232           JUNCTION      0.00   596.04     0  03:30           0        2.85       0.239
  WS02006234           JUNCTION      0.00   582.63     0  03:30           0        2.85      -0.227
  WS02006235           JUNCTION      0.00   562.65     0  03:30           0        2.88       0.199
  WS02006238           JUNCTION      0.00   418.90     0  03:17           0        1.93      -0.186
  WS02006239           JUNCTION      0.00   419.33     0  03:21           0        1.91      -0.099
  WS02006240           JUNCTION      0.00   417.63     0  03:21           0         1.9      -0.085
  WS02006242           JUNCTION      0.00   417.28     0  03:21           0        1.88      -0.195
  WS02006243           JUNCTION      0.00   417.42     0  03:21           0        1.88      -0.054
  WS02006245           JUNCTION      0.00   418.21     0  03:21           0        1.89       0.543
  WS02006247           JUNCTION      0.00   417.63     0  03:26           0        1.89      -0.027
  WS02006248           JUNCTION      0.00   418.03     0  03:26           0        1.89      -0.144
  WS02006249           JUNCTION      0.00   458.97     0  00:00           0        2.17       0.570
  WS02006251           JUNCTION      0.08   406.73     0  02:16     0.00222        2.17       0.059
  WS02006252           JUNCTION      0.00   400.00     0  00:00           0        2.15      -0.437
  WS02006256           JUNCTION      0.00   370.63     0  02:05           0        1.41      -0.303
  WSF200               JUNCTION      0.00   536.93     0  02:49           0        3.02       0.015
  YS02001580           JUNCTION      0.00   114.08     0  02:19           0     0.00406      -2.698
  YS02001583           JUNCTION      0.00   158.77     0  02:18           0       0.015      -4.417
  YS02001586           JUNCTION    512.43   512.43     0  02:26        1.02        1.03       0.121
  YS02001590           JUNCTION      0.00   317.88     0  02:26           0       0.926      -0.038
  YS02001593           JUNCTION      0.00   318.36     0  02:23           0       0.926       0.007
  YS02001596           JUNCTION      0.00   317.93     0  02:24           0       0.926      -0.011
  YS02001600           JUNCTION      0.00   317.96     0  02:27           0       0.926       0.008
  YS02001601           JUNCTION    890.42  1208.05     0  02:25        1.38        2.31       0.028
  YS02001602           JUNCTION      0.00   508.71     0  02:18           0        1.71       0.019
  YS02001605           JUNCTION      0.00   508.16     0  02:18           0        1.66       0.026
  YS02001607           JUNCTION      0.00   508.21     0  02:18           0        1.66       0.109
  YS02001610           JUNCTION      0.00   509.03     0  02:18           0        1.66       0.131
  YS02001613           JUNCTION      0.00   508.23     0  02:18           0        1.46       0.108
  YS02001616           JUNCTION      0.00   508.92     0  02:18           0        1.46       0.021
  YS02001619           JUNCTION    890.22   921.00     0  02:20        1.57        3.03      -0.008
  YS02001622           JUNCTION      0.00   921.56     0  02:20           0        3.02      -0.003
  YS02001625           JUNCTION      0.00   991.04     0  02:26           0        3.04       0.297
  YS02001629           JUNCTION      0.00   921.16     0  02:20           0        2.64       0.021
  YS02001633           JUNCTION    688.70  1347.42     0  02:21        1.04        3.64       0.092
  YS02001641           JUNCTION      0.00  1347.48     0  02:21           0        3.62       0.072
  YS02001644           JUNCTION    592.34  1715.83     0  02:21       0.855        4.47       0.073
  YS02001647           JUNCTION      0.00  1715.71     0  02:21           0         4.4       0.010
  YS02001649           JUNCTION      0.00  1919.03     0  02:20           0        5.21       0.001
  YS02001652           JUNCTION      0.00   707.41     0  02:25           0       0.815      -0.127
  YS02001655           JUNCTION      0.15   708.23     0  02:25     0.00443       0.814       0.016
  YS02001658           JUNCTION      0.00   707.02     0  02:25           0       0.809       0.009
  YS02001661           JUNCTION      0.00   750.29     0  02:24           0       0.809       0.018
  YS02001664           JUNCTION    606.34   606.34     0  02:25       0.809       0.809      -0.009
  YS02001745           JUNCTION    365.94   381.57     0  02:23       0.469       0.469       0.268
  YS02001748           JUNCTION      0.04   540.60     0  02:23      0.0013       0.471      -0.361
  YS02001751           JUNCTION      0.01   381.73     0  02:24    0.000317        0.48       0.154
  YS02001754           JUNCTION      0.26   381.76     0  02:24     0.00749       0.498      -0.247
  YS02001757           JUNCTION      0.00  3098.89     0  02:24           0        7.41       0.012
  YS02001759           JUNCTION    534.18  1213.34     0  02:25       0.684         1.7      -0.021
  YS02001762           JUNCTION      0.00   706.65     0  02:26           0        1.02      -0.009
  YS02001765           JUNCTION      0.00   705.40     0  02:26           0        1.02       0.018
  YS02001767           JUNCTION      0.54   704.77     0  02:26      0.0154        1.02       0.002
  YS02001770           JUNCTION    729.14   729.14     0  02:25        1.01        1.05      -0.014
  YS02001774           JUNCTION      0.00   369.97     0  02:21           0      0.0646       1.554
  YS02001779           JUNCTION      0.01   372.68     0  02:21    0.000144      0.0226      -2.600
  YS02001783           JUNCTION      0.00  1156.14     0  02:24           0        2.77       0.006
  YS02001784           JUNCTION      1.06  1157.13     0  02:23      0.0305         2.8       0.018
  YS02001786           JUNCTION      0.06  1157.23     0  02:24     0.00162         2.8       0.024
  YS02001788           JUNCTION      0.07  1157.63     0  02:23     0.00204         2.8       0.010
  YS02001790           JUNCTION      0.15  1166.70     0  02:23     0.00446        2.81       0.024
  YS02001791           JUNCTION      0.00  1266.68     0  02:27           0        2.81      -0.016
  YS02001793           JUNCTION      0.00  1240.06     0  02:24           0        2.81       0.007
  YS02001882           JUNCTION      0.00    50.18     0  02:21           0      0.0123       4.790
  YS02001884           JUNCTION      0.00    76.93     0  02:20           0      0.0481       5.355
  YS02001887           JUNCTION    566.40   566.40     0  02:25       0.714       0.747       0.594
  YS02001890           JUNCTION      0.00   567.77     0  02:25           0       0.707       0.728
  YS02001895           JUNCTION      0.00   511.78     0  02:26           0       0.694       0.174
  YS02001898           JUNCTION      0.00   511.83     0  02:26           0       0.693       0.057
  YS02001901           JUNCTION      0.00   511.84     0  02:26           0       0.695       0.461
  YS02001904           JUNCTION      0.00   512.10     0  02:26           0       0.699       0.416
  YS02001907           JUNCTION      0.00  1524.03     0  02:24           0        2.14       0.841
  YS02001910           JUNCTION      0.00  1026.02     0  02:24           0        1.44       0.494
  YS02001915           JUNCTION    598.46  1025.54     0  02:24       0.873        1.48       0.100
  YS02001918           JUNCTION      0.00   454.86     0  02:24           0       0.638       0.030
  YS02001920           JUNCTION      2.87   454.44     0  02:24      0.0827       0.622       0.107
  YS02001923           JUNCTION      0.04   428.92     0  02:23     0.00109       0.524      -0.115
  YS02001926           JUNCTION      0.05   589.31     0  02:23      0.0015       0.504      -0.088
  YS02001929           JUNCTION    305.73   366.41     0  02:23       0.491       0.493      -0.077
  YS02006553           JUNCTION      0.00   802.69     0  02:34           0        1.83       0.651
  YS02006556           JUNCTION      0.00   803.03     0  02:34           0        1.83       0.455
  YS02006558           JUNCTION    729.04  1160.64     0  02:23       0.987         2.8       0.127
  YS02006561           JUNCTION      0.00  1159.75     0  02:23           0        2.77       0.000
  YS02163301           JUNCTION      0.00   923.90     0  02:20           0        2.63       0.053
  YS02163601           JUNCTION      0.11  1347.20     0  02:21     0.00317        3.62       0.132
  YS02164001           JUNCTION      0.00  1347.00     0  02:21           0        3.61       0.062
  CC-1                 OUTFALL       0.00   683.00     0  00:00           0        3.12       0.000
  CC-2                 OUTFALL       0.00   683.00     0  00:00           0        2.89       0.000
  JK-1                 OUTFALL       0.00  1000.00     0  00:00           0        1.31       0.000
  JK-2                 OUTFALL       0.00  1000.00     0  00:00           0      0.0484       0.000
  WSC                  OUTFALL       0.00   752.77     0  02:51           0        8.83       0.000
  CC-storage           STORAGE       0.00  3098.97     0  02:24           0        9.63      -0.248
  JK-storage           STORAGE       0.00  1212.18     0  02:24           0        2.96       0.225
  XR-storage           STORAGE     200.00   200.00     0  00:00        5.76        6.36       0.001
  
  
  **********************
  Node Surcharge Summary
  **********************
  
  Surcharging occurs when water rises above the top of the highest conduit.
  ---------------------------------------------------------------------
                                               Max. Height   Min. Depth
                                   Hours       Above Crown    Below Rim
  Node                 Type      Surcharged         Meters       Meters
  ---------------------------------------------------------------------
  WS02006109           JUNCTION        1.29          0.274        1.546
  WS02006110           JUNCTION        0.99          0.173        1.677
  WS02006112           JUNCTION        0.96          0.063        1.617
  WS02006228           JUNCTION        1.29          0.265        1.935
  WS02006229           JUNCTION        1.31          0.305        2.145
  WS02006230           JUNCTION        1.01          0.165        1.405
  WS02006231           JUNCTION        1.03          0.432        1.098
  WS02006232           JUNCTION        1.35          1.031        0.449
  WS02006234           JUNCTION        1.20          1.105        0.135
  WS02006235           JUNCTION        1.30          1.265        0.025
  WS02006238           JUNCTION        1.32          1.311        0.119
  WS02006239           JUNCTION        1.25          1.196        0.094
  WS02006240           JUNCTION        1.25          1.040        0.350
  WS02006242           JUNCTION        1.26          0.820        0.000
  WS02006243           JUNCTION        1.25          0.770        0.000
  WS02006245           JUNCTION        1.24          0.818        0.032
  WS02006247           JUNCTION        1.24          0.723        0.037
  WS02006248           JUNCTION        1.24          0.380        0.000
  WS02006249           JUNCTION        1.24          0.390        0.000
  WS02006251           JUNCTION        1.05          0.311        0.869
  WS02006252           JUNCTION        1.39          1.100        0.000
  WS02006256           JUNCTION        3.40          2.050        0.000
  YS02001580           JUNCTION        0.33          0.450        0.000
  YS02001583           JUNCTION        0.34          0.381        0.119
  YS02001586           JUNCTION        0.43          0.510        0.000
  YS02001590           JUNCTION        0.49          0.750        0.000
  YS02001593           JUNCTION        0.50          0.676        0.164
  YS02001596           JUNCTION        0.59          0.930        0.140
  YS02001600           JUNCTION        0.71          1.190        0.000
  YS02001601           JUNCTION        1.03          1.440        0.000
  YS02001602           JUNCTION        0.92          1.270        0.000
  YS02001605           JUNCTION        0.87          1.180        0.000
  YS02001607           JUNCTION        0.47          0.645        0.035
  YS02001610           JUNCTION        0.49          0.680        0.000
  YS02001613           JUNCTION        0.46          0.700        0.000
  YS02001616           JUNCTION        0.43          0.607        0.003
  YS02001619           JUNCTION        0.41          0.610        0.000
  YS02001622           JUNCTION        0.41          0.580        0.040
  YS02001625           JUNCTION        0.56          0.780        0.000
  YS02001629           JUNCTION        0.38          0.470        0.000
  YS02001633           JUNCTION        0.58          1.060        0.000
  YS02001641           JUNCTION        0.52          1.004        0.096
  YS02001644           JUNCTION        0.49          0.920        0.000
  YS02001647           JUNCTION        0.33          0.771        0.129
  YS02001649           JUNCTION        0.41          0.967        0.083
  YS02001652           JUNCTION        0.28          0.816        0.314
  YS02001655           JUNCTION        0.19          0.811        0.389
  YS02001658           JUNCTION        0.09          0.711        0.589
  YS02001661           JUNCTION        0.01          0.299        1.091
  YS02001748           JUNCTION        0.04          0.565        0.625
  YS02001751           JUNCTION        0.12          0.640        0.560
  YS02001754           JUNCTION        0.22          0.662        0.488
  YS02001757           JUNCTION        0.46          0.982        0.228
  YS02001759           JUNCTION        0.38          1.040        0.170
  YS02001762           JUNCTION        0.36          1.082        0.068
  YS02001765           JUNCTION        0.32          1.094        0.006
  YS02001767           JUNCTION        0.31          1.030        0.000
  YS02001770           JUNCTION        0.29          0.920        0.000
  YS02001774           JUNCTION        0.35          0.983        0.067
  YS02001779           JUNCTION        0.21          0.680        0.000
  YS02001783           JUNCTION        0.30          0.521        1.079
  YS02001784           JUNCTION        0.28          0.377        1.113
  YS02001786           JUNCTION        0.20          0.120        1.310
  YS02001882           JUNCTION        0.26          0.830        0.000
  YS02001884           JUNCTION        0.27          0.870        0.000
  YS02001887           JUNCTION        0.29          0.945        0.005
  YS02001890           JUNCTION        0.30          0.760        0.000
  YS02001895           JUNCTION        0.25          0.566        0.184
  YS02001898           JUNCTION        0.24          0.542        0.198
  YS02001901           JUNCTION        0.28          0.686        0.184
  YS02001904           JUNCTION        0.27          0.645        0.205
  YS02001907           JUNCTION        0.48          0.950        0.000
  YS02001910           JUNCTION        0.32          1.100        0.000
  YS02001915           JUNCTION        0.25          1.000        0.000
  YS02001918           JUNCTION        0.18          0.810        0.000
  YS02001920           JUNCTION        0.20          1.136        0.004
  YS02001923           JUNCTION        0.01          0.820        0.000
  YS02001926           JUNCTION        0.02          0.900        0.000
  YS02001929           JUNCTION        0.01          0.780        0.000
  YS02006553           JUNCTION        0.50          0.995        0.195
  YS02006556           JUNCTION        0.40          0.948        0.402
  YS02006558           JUNCTION        0.39          0.931        0.469
  YS02006561           JUNCTION        0.15          0.236        0.914
  YS02163301           JUNCTION        0.56          0.971        0.059
  YS02163601           JUNCTION        0.61          1.080        0.000
  YS02164001           JUNCTION        0.52          1.011        0.089
  
  
  *********************
  Node Flooding Summary
  *********************
  
  Flooding refers to all water that overflows a node, whether it ponds or not.
  --------------------------------------------------------------------------
                                                             Total   Maximum
                                 Maximum   Time of Max       Flood    Ponded
                        Hours       Rate    Occurrence      Volume     Depth
  Node                 Flooded       LPS   days hr:min    10^6 ltr    Meters
  --------------------------------------------------------------------------
  WS02006242              0.01     22.10      0  03:30       0.000     0.000
  WS02006243              0.01      0.31      0  02:41       0.000     0.000
  WS02006248              0.01      7.98      0  03:30       0.000     0.000
  WS02006249              1.04    108.07      0  02:16       0.262     0.000
  WS02006252              0.01    245.63      0  00:00       0.000     0.000
  WS02006256              1.30    369.46      0  02:05       0.452     0.000
  YS02001580              0.01     92.24      0  02:19       0.000     0.000
  YS02001586              0.25    194.73      0  02:26       0.091     0.000
  YS02001590              0.01      0.25      0  02:23       0.000     0.000
  YS02001600              0.01      0.96      0  02:19       0.000     0.000
  YS02001601              0.38    810.10      0  02:25       0.596     0.000
  YS02001602              0.29     61.94      0  02:24       0.058     0.000
  YS02001605              0.01      0.19      0  02:23       0.000     0.000
  YS02001610              0.25    372.59      0  02:26       0.199     0.000
  YS02001613              0.01      0.68      0  02:23       0.000     0.000
  YS02001619              0.01      1.46      0  02:23       0.000     0.000
  YS02001625              0.23    990.88      0  02:26       0.425     0.000
  YS02001629              0.06    105.57      0  02:24       0.013     0.000
  YS02001633              0.01      1.61      0  02:23       0.000     0.000
  YS02001644              0.07    406.62      0  02:25       0.057     0.000
  YS02001767              0.01      1.73      0  02:23       0.000     0.000
  YS02001770              0.01      5.27      0  02:23       0.000     0.000
  YS02001779              0.05    284.23      0  02:21       0.006     0.000
  YS02001882              0.01      1.77      0  02:23       0.000     0.000
  YS02001884              0.01      1.59      0  02:23       0.000     0.000
  YS02001890              0.05     61.82      0  02:25       0.007     0.000
  YS02001907              0.14   1073.11      0  02:24       0.300     0.000
  YS02001910              0.01      3.86      0  02:23       0.000     0.000
  YS02001915              0.01      5.77      0  02:23       0.000     0.000
  YS02001918              0.01    167.74      0  02:23       0.002     0.000
  YS02001923              0.01     28.98      0  02:23       0.000     0.000
  YS02001926              0.01    172.55      0  02:23       0.001     0.000
  YS02001929              0.01    108.98      0  02:23       0.000     0.000
  YS02163601              0.01      0.81      0  02:23       0.000     0.000
  
  
  **********************
  Storage Volume Summary
  **********************
  
  ------------------------------------------------------------------------------------------------
                         Average    Avg   Evap  Exfil     Maximum    Max    Time of Max    Maximum
                          Volume   Pcnt   Pcnt   Pcnt      Volume   Pcnt     Occurrence    Outflow
  Storage Unit           1000 m³   Full   Loss   Loss     1000 m³   Full    days hr:min        LPS
  ------------------------------------------------------------------------------------------------
  CC-storage               2.248   35.1    0.0    0.0       4.338   67.7       0  02:40    1783.53
  JK-storage               0.131   44.9    0.0    0.0       0.213   72.9       0  02:25    2300.00
  XR-storage               0.938   65.2    0.0    0.0       1.111   77.2       0  08:00     380.00
  
  
  ***********************
  Outfall Loading Summary
  ***********************
  
  -----------------------------------------------------------
                         Flow       Avg       Max       Total
                         Freq      Flow      Flow      Volume
  Outfall Node           Pcnt       LPS       LPS    10^6 ltr
  -----------------------------------------------------------
  CC-1                  27.00    683.00    683.00       3.118
  CC-2                  24.92    683.00    683.00       2.894
  JK-1                  11.49   1000.00   1000.00       1.307
  JK-2                   0.26   1000.00   1000.00       0.048
  WSC                   99.93    367.42    752.77       8.830
  -----------------------------------------------------------
  System                32.72   3733.42   3366.23      16.198
  
  
  ********************
  Link Flow Summary
  ********************
  
  -----------------------------------------------------------------------------
                                 Maximum  Time of Max   Maximum    Max/    Max/
                                  |Flow|   Occurrence   |Veloc|    Full    Full
  Link                 Type          LPS  days hr:min     m/sec    Flow   Depth
  -----------------------------------------------------------------------------
  1                    CONDUIT    752.77     0  02:51      3.08    0.26    0.35
  WS02001211WS02001212 CONDUIT    202.69     0  03:25      0.54    0.15    0.51
  WS02001212WS02001213 CONDUIT    204.41     0  03:44      1.04    0.32    0.36
  WS02001213WS02003059 CONDUIT    209.53     0  03:44      0.47    0.35    0.67
  WS02003059WS02003060 CONDUIT    216.52     0  03:45      0.67    0.14    0.58
  WS02003060WS02003069 CONDUIT    750.94     0  02:50      1.77    0.29    0.40
  WS02003066WSF200     CONDUIT    536.93     0  02:49      2.74    0.09    0.23
  WS02003067WS02003066 CONDUIT    536.89     0  02:49      1.21    0.17    0.42
  WS02003069WS02003072 CONDUIT    751.12     0  02:50      1.51    0.36    0.45
  WS02003072WS02003073 CONDUIT    751.03     0  02:51      1.60    1.62    0.43
  WS02004138WS02004139 CONDUIT    190.84     0  00:29      2.17    0.04    0.33
  WS02004139WS02001211 CONDUIT    193.15     0  03:25      0.54    0.24    0.47
  WS02004401WS02004402 CONDUIT    538.59     0  02:46      0.97    0.65    0.86
  WS02004402WS02004403 CONDUIT    538.42     0  02:46      0.97    0.77    0.88
  WS02004403WS02004404 CONDUIT    537.93     0  02:46      0.92    0.39    0.93
  WS02004404WS02004405 CONDUIT    537.97     0  02:46      1.08    5.27    0.96
  WS02004405WS02004406 CONDUIT    538.39     0  02:46      0.99    1.06    0.96
  WS02004406WS02004407 CONDUIT    537.73     0  02:47      1.04    0.24    0.63
  WS02004407WS02004409 CONDUIT    537.43     0  02:47      1.53    0.19    0.48
  WS02004409WS02004410 CONDUIT    537.28     0  02:47      1.00    0.69    0.67
  WS02004410WS02004411 CONDUIT    537.13     0  02:48      0.94    0.73    0.69
  WS02004411WS02004412 CONDUIT    537.08     0  02:48      0.92    0.76    0.69
  WS02004412WS02004413 CONDUIT    537.04     0  02:48      0.82    0.36    0.78
  WS02004413WS02003067 CONDUIT    536.85     0  02:49      1.11    0.23    0.59
  WS02006109WS02006110 CONDUIT    547.71     0  03:21      1.09    1.05    1.00
  WS02006110WS02006113 CONDUIT    565.52     0  02:17      1.36    0.51    0.78
  WS02006111WS02006112 CONDUIT    542.46     0  02:33      1.82    0.26    0.67
  WS02006112WS02006115 CONDUIT    547.47     0  02:32      0.79    0.32    0.87
  WS02006113WS02006111 CONDUIT    559.87     0  03:00      2.46    0.67    0.46
  WS02006115WS02006116 CONDUIT    540.44     0  02:45      0.97    0.69    0.76
  WS02006116WS02004401 CONDUIT    538.95     0  02:46      0.98    0.74    0.84
  WS02006228WS02006109 CONDUIT    546.12     0  02:17      1.09    2.39    1.00
  WS02006229WS02006228 CONDUIT    546.20     0  02:17      1.15    1.81    1.00
  WS02006230WS02006229 CONDUIT    546.08     0  02:17      1.42   12.15    1.00
  WS02006231WS02006230 CONDUIT    570.68     0  03:25      1.55    8.66    1.00
  WS02006232WS02006231 CONDUIT    599.43     0  03:30      1.58    1.26    1.00
  WS02006234WS02006232 CONDUIT    596.04     0  03:30      1.55    1.21    1.00
  WS02006235WS02006234 CONDUIT    582.63     0  03:30      1.51    6.15    1.00
  WS02006238WS02006235 CONDUIT    420.65     0  03:17      1.57    0.94    1.00
  WS02006239WS02006238 CONDUIT    418.90     0  03:17      1.11    1.34    1.00
  WS02006240WS02006239 CONDUIT    419.33     0  03:21      1.24    1.32    1.00
  WS02006242WS02006240 CONDUIT    417.63     0  03:21      1.12    1.66    1.00
  WS02006243WS02006242 CONDUIT    417.28     0  03:21      1.39    0.89    1.00
  WS02006245WS02006243 CONDUIT    417.42     0  03:21      1.45    1.23    1.00
  WS02006247WS02006245 CONDUIT    418.21     0  03:21      1.44    3.32    1.00
  WS02006248WS02006247 CONDUIT    417.63     0  03:26      1.45    0.91    1.00
  WS02006249WS02006248 CONDUIT    418.03     0  03:26      1.37    2.29    1.00
  WS02006251WS02006249 CONDUIT    458.97     0  00:00      1.99    1.32    1.00
  WS02006252WS02006251 CONDUIT    406.65     0  02:16     25.11    1.49    1.00
  WS02006256WS02006235 CONDUIT    289.22     0  02:02      4.23    3.06    1.00
  WSF200WS02003060     CONDUIT    537.06     0  02:49      1.76    0.12    0.32
  YS02001580YS02001583 CONDUIT    114.08     0  02:19      0.62    0.44    1.00
  YS02001583YS02001586 CONDUIT    158.77     0  02:18      0.65    0.24    1.00
  YS02001586YS02001590 CONDUIT    317.88     0  02:26      1.27    0.56    1.00
  YS02001590YS02001593 CONDUIT    318.36     0  02:23      1.13    2.00    1.00
  YS02001593YS02001596 CONDUIT    317.93     0  02:24      1.74    0.50    1.00
  YS02001596YS02001600 CONDUIT    317.96     0  02:27      1.24    0.62    1.00
  YS02001600YS02001601 CONDUIT    317.89     0  02:25      1.12    0.55    1.00
  YS02001601YS02001602 CONDUIT    508.71     0  02:18      1.80    1.84    1.00
  YS02001602YS02001605 CONDUIT    508.16     0  02:18      1.80   10.75    1.00
  YS02001605YS02001607 CONDUIT    508.21     0  02:18      1.80    2.79    1.00
  YS02001607YS02001610 CONDUIT    509.03     0  02:18      0.65    0.48    1.00
  YS02001610YS02001613 CONDUIT    508.23     0  02:18      0.65    0.59    1.00
  YS02001613YS02001616 CONDUIT    508.92     0  02:18      0.65    0.44    1.00
  YS02001616YS02001619 CONDUIT    499.57     0  02:18      0.66    0.87    1.00
  YS02001619YS02001622 CONDUIT    921.56     0  02:20      1.18    1.36    1.00
  YS02001622YS02001625 CONDUIT    921.40     0  02:20      1.17    0.49    1.00
  YS02001625YS02001629 CONDUIT    921.16     0  02:20      1.17    0.44    1.00
  YS02001629YS02163301 CONDUIT    923.90     0  02:20      1.18    1.14    1.00
  YS02001633YS02163601 CONDUIT   1347.09     0  02:21      1.72    1.41    1.00
  YS02001641YS02001644 CONDUIT   1347.90     0  02:21      1.72    4.36    1.00
  YS02001644YS02001647 CONDUIT   1715.71     0  02:21      2.20    1.01    1.00
  YS02001647YS02001649 CONDUIT   1715.55     0  02:21      2.31    0.91    1.00
  YS02001649YS02001757 CONDUIT   1891.22     0  02:20      2.42    1.15    1.00
  YS02001652YS02001649 CONDUIT    708.60     0  02:25      0.90    0.35    1.00
  YS02001655YS02001652 CONDUIT    707.41     0  02:25      1.27    0.34    1.00
  YS02001658YS02001655 CONDUIT    708.08     0  02:25      1.89    0.30    1.00
  YS02001661YS02001658 CONDUIT    707.02     0  02:25      2.26    0.28    1.00
  YS02001664YS02001661 CONDUIT    750.29     0  02:24      2.22    0.24    0.76
  YS02001745YS02001748 CONDUIT    540.55     0  02:23      2.06    0.21    0.86
  YS02001748YS02001751 CONDUIT    381.71     0  02:24      1.62    0.19    1.00
  YS02001751YS02001754 CONDUIT    381.50     0  02:24      1.42    0.18    1.00
  YS02001754YS02001757 CONDUIT    380.97     0  02:24      0.49    0.15    1.00
  YS02001757CaochengTiaoxuchi CONDUIT   3098.97     0  02:24      3.95    1.34    1.00
  YS02001759YS02001757 CONDUIT   1214.15     0  02:25      1.55    0.86    1.00
  YS02001762YS02001759 CONDUIT    706.41     0  02:26      0.90    0.81    1.00
  YS02001765YS02001762 CONDUIT    706.65     0  02:26      0.90    0.66    1.00
  YS02001767YS02001765 CONDUIT    705.40     0  02:26      0.90    0.89    1.00
  YS02001770YS02001767 CONDUIT    704.23     0  02:26      0.90    2.79    1.00
  YS02001774YS02001770 CONDUIT    369.97     0  02:21      0.47    0.24    1.00
  YS02001779YS02001774 CONDUIT    372.68     0  02:21      0.48    0.19    1.00
  YS02001783YS02001784 CONDUIT   1156.07     0  02:23      2.30    1.59    1.00
  YS02001784YS02001785 CONDUIT   1157.17     0  02:24      2.30    2.69    1.00
  YS02001786YS02001788 CONDUIT   1157.56     0  02:23      2.47    2.23    0.89
  YS02001788YS02001790 CONDUIT   1166.55     0  02:23      2.71    0.86    0.83
  YS02001790YS02001791 CONDUIT   1266.68     0  02:27      3.40    1.38    0.70
  YS02001791YS02001793 CONDUIT   1240.06     0  02:24      6.46    0.53    0.44
  YS02001793JiankangQianchi CONDUIT   1212.18     0  02:24      2.37    0.10    0.65
  YS02001882YS02001884 CONDUIT     50.18     0  02:21      0.09    0.06    1.00
  YS02001884YS02001887 CONDUIT     76.93     0  02:20      0.10    0.10    1.00
  YS02001887YS02001890 CONDUIT    567.77     0  02:25      0.72    0.97    1.00
  YS02001890YS02001895 CONDUIT    511.78     0  02:26      0.65    0.24    1.00
  YS02001895YS02001898 CONDUIT    511.83     0  02:26      0.65    0.89    1.00
  YS02001898YS02001901 CONDUIT    511.84     0  02:26      0.65    0.33    1.00
  YS02001901YS02001904 CONDUIT    512.10     0  02:26      0.65    0.79    1.00
  YS02001904YS02001907 CONDUIT    512.02     0  02:26      0.65    0.18    1.00
  YS02001907YS02006553 CONDUIT    802.69     0  02:34      0.89    0.94    1.00
  YS02001910YS02001907 CONDUIT   1025.69     0  02:24      1.31    0.58    1.00
  YS02001915YS02001910 CONDUIT   1026.02     0  02:24      1.31    0.51    1.00
  YS02001918YS02001915 CONDUIT    456.68     0  02:24      0.58    0.25    1.00
  YS02001920YS02001918 CONDUIT    454.86     0  02:24      0.64    0.44    1.00
  YS02001923YS02001920 CONDUIT    451.57     0  02:24      0.72    0.20    1.00
  YS02001926YS02001923 CONDUIT    420.37     0  02:24      0.97    0.60    1.00
  YS02001929YS02001926 CONDUIT    417.66     0  02:24      1.15    0.20    1.00
  YS02006553YS02006556 CONDUIT    803.03     0  02:34      1.02    0.69    1.00
  YS02006556YS02006558 CONDUIT    805.67     0  02:34      1.03    0.64    1.00
  YS02006558YS02006561 CONDUIT   1159.75     0  02:23      4.10    2.56    1.00
  YS02006561YS02001783 CONDUIT   1156.14     0  02:24      2.30    0.60    1.00
  YS02163301YS02001633 CONDUIT    922.53     0  02:20      1.17    0.87    1.00
  YS02163601YS02164001 CONDUIT   1347.00     0  02:21      1.72    1.19    1.00
  YS02164001YS02001641 CONDUIT   1347.48     0  02:21      1.72    1.84    1.00
  CC-R1                PUMP       683.00     0  00:00              1.00
  CC-R2                PUMP       683.00     0  00:00              1.00
  CC-S1                PUMP       200.00     0  00:00              1.00
  CC-S2                PUMP       200.00     0  00:00              1.00
  JK-R1                PUMP      1000.00     0  00:00              1.00
  JK-R2                PUMP      1000.00     0  00:00              1.00
  JK-S                 PUMP       300.00     0  00:00              1.00
  XR-1                 PUMP        95.00     0  00:00              1.00
  XR-2                 PUMP        95.00     0  00:00              1.00
  XR-3                 PUMP        95.00     0  00:00              1.00
  XR-4                 PUMP        95.00     0  00:00              1.00
  
  
  ***************************
  Flow Classification Summary
  ***************************
  
  -------------------------------------------------------------------------------------
                      Adjusted    ---------- Fraction of Time in Flow Class ---------- 
                       /Actual         Up    Down  Sub   Sup   Up    Down  Norm  Inlet 
  Conduit               Length    Dry  Dry   Dry   Crit  Crit  Crit  Crit  Ltd   Ctrl  
  -------------------------------------------------------------------------------------
  1                       1.00   0.00  0.00  0.00  0.00  1.00  0.00  0.00  0.12  0.00
  WS02001211WS02001212    1.00   0.00  0.02  0.00  0.98  0.00  0.00  0.00  0.00  0.00
  WS02001212WS02001213    1.00   0.02  0.00  0.00  0.18  0.00  0.79  0.00  0.00  0.00
  WS02001213WS02003059    1.00   0.00  0.01  0.00  0.99  0.00  0.00  0.00  0.00  0.00
  WS02003059WS02003060    1.00   0.00  0.00  0.00  1.00  0.00  0.00  0.00  0.03  0.00
  WS02003060WS02003069    1.00   0.00  0.00  0.00  0.98  0.02  0.00  0.00  0.75  0.00
  WS02003066WSF200        1.00   0.13  0.00  0.00  0.00  0.87  0.00  0.00  0.72  0.00
  WS02003067WS02003066    1.00   0.10  0.02  0.00  0.88  0.00  0.00  0.00  0.00  0.00
  WS02003069WS02003072    1.00   0.00  0.00  0.00  1.00  0.00  0.00  0.00  0.79  0.00
  WS02003072WS02003073    1.00   0.00  0.00  0.00  0.00  0.00  0.00  1.00  0.00  0.00
  WS02004138WS02004139    1.00   0.00  0.00  0.00  0.97  0.01  0.00  0.02  0.98  0.00
  WS02004139WS02001211    1.00   0.00  0.00  0.00  0.99  0.00  0.00  0.00  0.00  0.00
  WS02004401WS02004402    1.00   0.02  0.00  0.00  0.98  0.00  0.00  0.00  0.00  0.00
  WS02004402WS02004403    1.00   0.02  0.00  0.00  0.97  0.00  0.00  0.00  0.00  0.00
  WS02004403WS02004404    1.00   0.00  0.03  0.00  0.97  0.00  0.00  0.00  0.00  0.00
  WS02004404WS02004405    1.00   0.00  0.00  0.00  1.00  0.00  0.00  0.00  0.00  0.00
  WS02004405WS02004406    1.00   0.00  0.00  0.00  1.00  0.00  0.00  0.00  0.00  0.00
  WS02004406WS02004407    1.00   0.00  0.05  0.00  0.95  0.00  0.00  0.00  0.00  0.00
  WS02004407WS02004409    1.00   0.05  0.00  0.00  0.94  0.01  0.00  0.00  0.94  0.00
  WS02004409WS02004410    1.00   0.05  0.00  0.00  0.95  0.00  0.00  0.00  0.03  0.00
  WS02004410WS02004411    1.00   0.05  0.00  0.00  0.95  0.00  0.00  0.00  0.01  0.00
  WS02004411WS02004412    1.00   0.05  0.00  0.00  0.95  0.00  0.00  0.00  0.00  0.00
  WS02004412WS02004413    1.00   0.05  0.00  0.00  0.94  0.00  0.00  0.00  0.01  0.00
  WS02004413WS02003067    1.00   0.06  0.04  0.00  0.00  0.00  0.90  0.00  0.00  0.00
  WS02006109WS02006110    1.00   0.00  0.01  0.00  0.98  0.00  0.01  0.00  0.00  0.00
  WS02006110WS02006113    1.00   0.01  0.01  0.00  0.98  0.00  0.00  0.00  0.00  0.00
  WS02006111WS02006112    1.00   0.02  0.00  0.00  0.98  0.00  0.00  0.00  0.98  0.00
  WS02006112WS02006115    1.00   0.02  0.00  0.00  0.97  0.00  0.00  0.00  0.00  0.00
  WS02006113WS02006111    1.00   0.02  0.00  0.00  0.00  0.98  0.00  0.00  0.07  0.00
  WS02006115WS02006116    1.00   0.02  0.00  0.00  0.97  0.00  0.00  0.01  0.00  0.00
  WS02006116WS02004401    1.00   0.02  0.00  0.00  0.98  0.00  0.00  0.00  0.00  0.00
  WS02006228WS02006109    1.00   0.00  0.00  0.00  1.00  0.00  0.00  0.00  0.00  0.00
  WS02006229WS02006228    1.00   0.00  0.00  0.00  0.99  0.00  0.00  0.01  0.00  0.00
  WS02006230WS02006229    1.00   0.00  0.00  0.00  0.99  0.00  0.00  0.01  0.00  0.00
  WS02006231WS02006230    1.00   0.00  0.00  0.00  0.17  0.00  0.82  0.00  0.00  0.00
  WS02006232WS02006231    1.00   0.00  0.00  0.00  0.99  0.00  0.01  0.00  0.00  0.00
  WS02006234WS02006232    1.00   0.00  0.00  0.00  1.00  0.00  0.00  0.00  0.48  0.00
  WS02006235WS02006234    1.00   0.00  0.00  0.00  0.48  0.00  0.52  0.00  0.00  0.00
  WS02006238WS02006235    1.00   0.00  0.00  0.00  1.00  0.00  0.00  0.00  0.00  0.00
  WS02006239WS02006238    1.00   0.00  0.00  0.00  1.00  0.00  0.00  0.00  0.58  0.00
  WS02006240WS02006239    1.00   0.00  0.00  0.00  0.33  0.00  0.00  0.67  0.01  0.00
  WS02006242WS02006240    1.00   0.00  0.00  0.00  1.00  0.00  0.00  0.00  0.00  0.00
  WS02006243WS02006242    1.00   0.00  0.00  0.00  0.99  0.00  0.00  0.01  0.77  0.00
  WS02006245WS02006243    1.00   0.00  0.00  0.00  0.41  0.00  0.00  0.59  0.00  0.00
  WS02006247WS02006245    1.00   0.00  0.00  0.00  0.99  0.00  0.00  0.01  0.00  0.00
  WS02006248WS02006247    1.00   0.00  0.00  0.00  0.99  0.00  0.00  0.01  0.21  0.00
  WS02006249WS02006248    1.00   0.00  0.00  0.00  0.28  0.00  0.72  0.00  0.00  0.00
  WS02006251WS02006249    1.00   0.00  0.00  0.00  0.99  0.01  0.00  0.00  0.75  0.00
  WS02006252WS02006251    1.00   0.00  0.77  0.00  0.13  0.00  0.10  0.00  0.01  0.00
  WS02006256WS02006235    1.00   0.00  0.00  0.00  1.00  0.00  0.00  0.00  0.00  0.00
  WSF200WS02003060        1.00   0.00  0.13  0.00  0.71  0.16  0.00  0.00  0.70  0.00
  YS02001580YS02001583    1.00   0.29  0.56  0.00  0.15  0.00  0.00  0.00  0.65  0.00
  YS02001583YS02001586    1.00   0.49  0.31  0.00  0.20  0.00  0.00  0.00  0.66  0.00
  YS02001586YS02001590    1.00   0.13  0.00  0.00  0.39  0.04  0.00  0.45  0.36  0.00
  YS02001590YS02001593    1.00   0.13  0.01  0.00  0.07  0.00  0.79  0.00  0.00  0.00
  YS02001593YS02001596    1.00   0.14  0.00  0.00  0.09  0.01  0.00  0.77  0.01  0.00
  YS02001596YS02001600    1.00   0.14  0.00  0.00  0.15  0.01  0.00  0.70  0.05  0.00
  YS02001600YS02001601    1.00   0.13  0.01  0.00  0.86  0.00  0.00  0.00  0.64  0.00
  YS02001601YS02001602    1.00   0.13  0.01  0.00  0.86  0.00  0.00  0.00  0.00  0.00
  YS02001602YS02001605    1.00   0.14  0.00  0.00  0.86  0.00  0.00  0.00  0.00  0.00
  YS02001605YS02001607    1.00   0.14  0.00  0.00  0.86  0.00  0.00  0.00  0.00  0.00
  YS02001607YS02001610    1.00   0.13  0.01  0.00  0.86  0.00  0.00  0.00  0.02  0.00
  YS02001610YS02001613    1.00   0.13  0.00  0.00  0.87  0.00  0.00  0.00  0.01  0.00
  YS02001613YS02001616    1.00   0.13  0.00  0.00  0.87  0.00  0.00  0.00  0.01  0.00
  YS02001616YS02001619    1.00   0.13  0.00  0.00  0.87  0.00  0.00  0.00  0.00  0.00
  YS02001619YS02001622    1.00   0.13  0.00  0.00  0.87  0.00  0.00  0.00  0.34  0.00
  YS02001622YS02001625    1.00   0.13  0.00  0.00  0.87  0.00  0.00  0.00  0.06  0.00
  YS02001625YS02001629    1.00   0.13  0.06  0.00  0.11  0.00  0.70  0.00  0.00  0.00
  YS02001629YS02163301    1.00   0.16  0.01  0.00  0.83  0.00  0.00  0.00  0.00  0.00
  YS02001633YS02163601    1.00   0.00  0.01  0.00  0.99  0.00  0.00  0.00  0.15  0.00
  YS02001641YS02001644    1.00   0.00  0.01  0.00  0.99  0.00  0.00  0.00  0.00  0.00
  YS02001644YS02001647    1.00   0.00  0.19  0.00  0.81  0.00  0.00  0.00  0.00  0.00
  YS02001647YS02001649    1.00   0.00  0.19  0.00  0.52  0.29  0.00  0.00  0.59  0.00
  YS02001649YS02001757    1.00   0.00  0.00  0.00  0.69  0.31  0.00  0.00  0.54  0.00
  YS02001652YS02001649    1.00   0.00  0.00  0.00  0.96  0.04  0.00  0.00  0.80  0.00
  YS02001655YS02001652    1.00   0.00  0.00  0.00  0.13  0.01  0.00  0.86  0.04  0.00
  YS02001658YS02001655    1.00   0.00  0.14  0.00  0.63  0.22  0.00  0.00  0.74  0.00
  YS02001661YS02001658    1.00   0.14  0.00  0.00  0.50  0.36  0.00  0.00  0.75  0.00
  YS02001664YS02001661    1.00   0.13  0.00  0.00  0.79  0.08  0.00  0.00  0.86  0.00
  YS02001745YS02001748    1.00   0.00  0.00  0.00  0.05  0.01  0.00  0.94  0.03  0.00
  YS02001748YS02001751    1.00   0.00  0.00  0.00  0.82  0.18  0.00  0.00  0.78  0.00
  YS02001751YS02001754    1.00   0.00  0.00  0.00  0.10  0.01  0.00  0.89  0.02  0.00
  YS02001754YS02001757    1.00   0.00  0.00  0.00  1.00  0.00  0.00  0.00  0.88  0.00
  YS02001757CaochengTiaoxuchi    1.00   0.00  0.00  0.00  1.00  0.00  0.00  0.00  0.88  0.00
  YS02001759YS02001757    1.00   0.00  0.00  0.00  1.00  0.00  0.00  0.00  0.64  0.00
  YS02001762YS02001759    1.00   0.00  0.00  0.00  1.00  0.00  0.00  0.00  0.06  0.00
  YS02001765YS02001762    1.00   0.00  0.00  0.00  1.00  0.00  0.00  0.00  0.77  0.00
  YS02001767YS02001765    1.00   0.00  0.00  0.00  1.00  0.00  0.00  0.00  0.00  0.00
  YS02001770YS02001767    1.00   0.00  0.00  0.00  1.00  0.00  0.00  0.00  0.00  0.00
  YS02001774YS02001770    1.00   0.00  0.13  0.00  0.60  0.00  0.27  0.00  0.04  0.00
  YS02001779YS02001774    1.00   0.00  0.00  0.00  1.00  0.00  0.00  0.00  0.81  0.00
  YS02001783YS02001784    1.00   0.00  0.20  0.00  0.80  0.00  0.00  0.00  0.58  0.00
  YS02001784YS02001785    1.00   0.00  0.00  0.00  1.00  0.00  0.00  0.00  0.18  0.00
  YS02001786YS02001788    1.00   0.00  0.00  0.00  0.81  0.19  0.00  0.00  0.00  0.00
  YS02001788YS02001790    1.00   0.00  0.00  0.00  0.22  0.78  0.00  0.00  0.85  0.00
  YS02001790YS02001791    1.00   0.00  0.00  0.00  0.01  0.99  0.00  0.00  0.15  0.00
  YS02001791YS02001793    1.00   0.00  0.00  0.00  0.00  1.00  0.00  0.00  0.01  0.00
  YS02001793JiankangQianchi    1.00   0.00  0.00  0.00  1.00  0.00  0.00  0.00  0.97  0.00
  YS02001882YS02001884    1.00   0.16  0.01  0.00  0.83  0.00  0.00  0.00  0.00  0.00
  YS02001884YS02001887    1.00   0.06  0.05  0.00  0.89  0.00  0.00  0.00  0.00  0.00
  YS02001887YS02001890    1.00   0.00  0.00  0.00  0.97  0.00  0.03  0.00  0.00  0.00
  YS02001890YS02001895    1.00   0.00  0.17  0.00  0.82  0.00  0.00  0.00  0.00  0.00
  YS02001895YS02001898    1.00   0.18  0.00  0.00  0.80  0.00  0.02  0.00  0.00  0.00
  YS02001898YS02001901    1.00   0.18  0.00  0.00  0.82  0.00  0.00  0.00  0.02  0.00
  YS02001901YS02001904    1.00   0.18  0.00  0.00  0.82  0.00  0.00  0.00  0.00  0.00
  YS02001904YS02001907    1.00   0.00  0.17  0.00  0.82  0.00  0.00  0.00  0.00  0.00
  YS02001907YS02006553    1.00   0.00  0.02  0.00  0.98  0.00  0.00  0.00  0.00  0.00
  YS02001910YS02001907    1.00   0.00  0.00  0.00  0.97  0.00  0.00  0.03  0.12  0.00
  YS02001915YS02001910    1.00   0.00  0.00  0.00  0.96  0.04  0.00  0.00  0.17  0.00
  YS02001918YS02001915    1.00   0.00  0.01  0.00  0.98  0.02  0.00  0.00  0.79  0.00
  YS02001920YS02001918    1.00   0.00  0.01  0.00  0.99  0.00  0.00  0.00  0.00  0.00
  YS02001923YS02001920    1.00   0.00  0.00  0.00  1.00  0.00  0.00  0.00  0.95  0.00
  YS02001926YS02001923    1.00   0.00  0.07  0.00  0.03  0.00  0.89  0.00  0.00  0.00
  YS02001929YS02001926    1.00   0.00  0.13  0.00  0.87  0.00  0.00  0.00  0.85  0.00
  YS02006553YS02006556    1.00   0.01  0.00  0.00  0.99  0.00  0.00  0.00  0.03  0.00
  YS02006556YS02006558    1.00   0.00  0.00  0.00  1.00  0.00  0.00  0.00  0.00  0.00
  YS02006558YS02006561    1.00   0.19  0.00  0.00  0.03  0.78  0.00  0.00  0.18  0.00
  YS02006561YS02001783    1.00   0.19  0.00  0.00  0.06  0.75  0.00  0.00  0.71  0.00
  YS02163301YS02001633    1.00   0.00  0.16  0.00  0.84  0.00  0.00  0.00  0.00  0.00
  YS02163601YS02164001    1.00   0.00  0.08  0.00  0.92  0.00  0.00  0.00  0.00  0.00
  YS02164001YS02001641    1.00   0.01  0.07  0.00  0.92  0.00  0.00  0.00  0.06  0.00
  
  
  *************************
  Conduit Surcharge Summary
  *************************
  
  ----------------------------------------------------------------------------
                                                           Hours        Hours 
                         --------- Hours Full --------   Above Full   Capacity
  Conduit                Both Ends  Upstream  Dnstream   Normal Flow   Limited
  ----------------------------------------------------------------------------
  WS02003072WS02003073        0.01      0.01      0.01      1.43         0.01
  WS02004404WS02004405        0.01      0.01      0.01      1.68         0.01
  WS02004405WS02004406        0.01      0.01      0.01      0.95         0.01
  WS02006109WS02006110        0.99      0.99      1.34      1.02         0.01
  WS02006110WS02006113        0.01      0.01      1.31      0.01         0.01
  WS02006111WS02006112        0.01      0.01      1.38      0.01         0.01
  WS02006112WS02006115        0.01      0.01      0.96      0.01         0.01
  WS02006228WS02006109        1.29      1.33      1.29      1.48         1.29
  WS02006229WS02006228        1.29      1.31      1.29      1.42         1.29
  WS02006230WS02006229        1.38      1.40      1.38      2.02         1.38
  WS02006231WS02006230        1.01      1.01      1.05      1.82         0.01
  WS02006232WS02006231        1.03      1.03      1.35      1.06         0.01
  WS02006234WS02006232        1.26      1.26      1.35      1.05         1.04
  WS02006235WS02006234        1.19      1.19      1.29      1.75         0.01
  WS02006238WS02006235        1.31      1.31      1.35      0.01         0.01
  WS02006239WS02006238        1.28      1.29      1.32      1.26         1.11
  WS02006240WS02006239        1.25      1.26      1.25      1.26         1.04
  WS02006242WS02006240        1.25      1.25      1.27      1.32         0.01
  WS02006243WS02006242        1.26      1.26      1.26      0.01         0.01
  WS02006245WS02006243        1.24      1.24      1.25      0.27         0.38
  WS02006247WS02006245        1.24      1.25      1.24      1.56         1.24
  WS02006248WS02006247        1.24      1.24      1.24      0.01         0.01
  WS02006249WS02006248        1.24      1.24      1.24      1.54         0.01
  WS02006251WS02006249        1.23      1.23      1.24      1.32         1.21
  WS02006252WS02006251        1.38      1.38      1.39      1.39         0.01
  WS02006256WS02006235        1.76      1.77      3.39      1.30         0.01
  YS02001580YS02001583        0.33      0.33      0.37      0.01         0.01
  YS02001583YS02001586        0.34      0.34      0.43      0.01         0.01
  YS02001586YS02001590        0.44      0.44      0.49      0.01         0.01
  YS02001590YS02001593        0.50      0.50      0.51      0.51         0.01
  YS02001593YS02001596        0.51      0.51      0.59      0.01         0.01
  YS02001596YS02001600        0.63      0.63      0.71      0.01         0.01
  YS02001600YS02001601        0.76      0.76      1.03      0.01         0.01
  YS02001601YS02001602        0.92      0.92      1.07      0.71         0.01
  YS02001602YS02001605        0.87      0.87      0.92      1.94         0.01
  YS02001605YS02001607        0.83      0.87      0.83      0.99         0.83
  YS02001607YS02001610        0.47      0.47      0.49      0.01         0.01
  YS02001610YS02001613        0.46      0.46      0.49      0.01         0.01
  YS02001613YS02001616        0.43      0.43      0.46      0.01         0.01
  YS02001616YS02001619        0.41      0.41      0.43      0.01         0.01
  YS02001619YS02001622        0.41      0.41      0.41      0.50         0.39
  YS02001622YS02001625        0.41      0.41      0.56      0.01         0.01
  YS02001625YS02001629        0.38      0.38      0.56      0.01         0.01
  YS02001629YS02163301        0.55      0.55      0.56      0.13         0.12
  YS02001633YS02163601        0.58      0.58      0.60      0.26         0.26
  YS02001641YS02001644        0.49      0.52      0.49      1.12         0.49
  YS02001644YS02001647        0.33      0.33      0.49      0.01         0.01
  YS02001647YS02001649        0.33      0.33      0.41      0.01         0.01
  YS02001649YS02001757        0.41      0.41      0.46      0.06         0.04
  YS02001652YS02001649        0.30      0.30      0.41      0.01         0.01
  YS02001655YS02001652        0.19      0.19      0.28      0.01         0.01
  YS02001658YS02001655        0.09      0.09      0.19      0.01         0.01
  YS02001661YS02001658        0.01      0.01      0.09      0.01         0.01
  YS02001664YS02001661        0.01      0.01      0.01      0.01         0.01
  YS02001745YS02001748        0.01      0.01      0.04      0.01         0.01
  YS02001748YS02001751        0.07      0.07      0.12      0.01         0.01
  YS02001751YS02001754        0.12      0.12      0.22      0.01         0.01
  YS02001754YS02001757        0.24      0.24      0.46      0.01         0.01
  YS02001757CaochengTiaoxuchi        0.46      0.46      1.01      0.18         0.18
  YS02001759YS02001757        0.38      0.38      0.46      0.01         0.01
  YS02001762YS02001759        0.36      0.36      0.38      0.01         0.01
  YS02001765YS02001762        0.32      0.32      0.36      0.01         0.01
  YS02001767YS02001765        0.31      0.31      0.32      0.01         0.02
  YS02001770YS02001767        0.30      0.30      0.31      0.29         0.21
  YS02001774YS02001770        0.29      0.29      0.35      0.01         0.01
  YS02001779YS02001774        0.21      0.21      0.35      0.01         0.01
  YS02001783YS02001784        0.28      0.30      0.28      0.42         0.28
  YS02001784YS02001785        0.20      0.28      0.20      0.60         0.20
  YS02001786YS02001788        0.01      0.20      0.01      0.51         0.01
  YS02001790YS02001791        0.01      0.01      0.01      0.27         0.01
  YS02001793JiankangQianchi        0.01      0.01      7.69      0.01         0.01
  YS02001882YS02001884        0.26      0.26      0.27      0.01         0.01
  YS02001884YS02001887        0.28      0.28      0.29      0.01         0.01
  YS02001887YS02001890        0.30      0.30      0.31      0.01         0.01
  YS02001890YS02001895        0.25      0.25      0.33      0.01         0.01
  YS02001895YS02001898        0.24      0.24      0.25      0.01         0.01
  YS02001898YS02001901        0.25      0.25      0.28      0.01         0.01
  YS02001901YS02001904        0.27      0.27      0.28      0.01         0.01
  YS02001904YS02001907        0.27      0.27      0.50      0.01         0.01
  YS02001907YS02006553        0.61      0.61      0.66      0.01         0.01
  YS02001910YS02001907        0.32      0.32      0.48      0.01         0.01
  YS02001915YS02001910        0.25      0.25      0.32      0.01         0.01
  YS02001918YS02001915        0.18      0.18      0.25      0.01         0.01
  YS02001920YS02001918        0.18      0.18      0.20      0.01         0.01
  YS02001923YS02001920        0.15      0.15      0.20      0.01         0.01
  YS02001926YS02001923        0.01      0.01      0.01      0.01         0.01
  YS02001929YS02001926        0.01      0.01      0.01      0.01         0.01
  YS02006553YS02006556        0.40      0.40      0.50      0.01         0.01
  YS02006556YS02006558        0.45      0.45      0.51      0.01         0.01
  YS02006558YS02006561        0.21      0.39      0.21      0.57         0.21
  YS02006561YS02001783        0.15      0.15      0.30      0.01         0.01
  YS02163301YS02001633        0.56      0.56      0.59      0.01         0.01
  YS02163601YS02164001        0.52      0.52      0.60      0.06         0.01
  YS02164001YS02001641        0.52      0.52      0.52      0.52         0.42
  
  
  ***************
  Pumping Summary
  ***************
  
  ---------------------------------------------------------------------------------------------------------
                                                  Min       Avg       Max     Total     Power    % Time Off
                        Percent   Number of      Flow      Flow      Flow    Volume     Usage    Pump Curve
  Pump                 Utilized   Start-Ups       LPS       LPS       LPS  10^6 ltr     Kw-hr    Low   High
  ---------------------------------------------------------------------------------------------------------
  CC-R1                   15.85          14      0.00    683.00    683.00     3.117     56.80    0.0   29.8
  CC-R2                   14.71          14      0.00    683.00    683.00     2.893     52.65    0.0   32.1
  CC-S1                   20.07          14      0.00    200.00    200.00     1.156      6.95    0.0    0.0
  CC-S2                   17.32          14      0.00    200.00    200.00     0.998      6.00    0.0    0.0
  JK-R1                    4.53           7      0.00   1000.00   1000.00     1.305     15.37    0.0    0.0
  JK-R2                    0.16           1      0.00   1000.00   1000.00     0.047      0.36    0.0    0.0
  JK-S                    16.26           6      0.00    300.00    300.00     1.405     20.24    0.0    0.0
  XR-1                    97.91           2      0.00     95.00     95.00     2.679      9.60    0.0    0.0
  XR-2                    93.94           2      0.00     95.00     95.00     2.570      8.76    0.0    0.0
  XR-3                     0.00           1      0.00     95.00     95.00     0.000      0.00    0.0    0.0
  XR-4                     0.00           1      0.00     95.00     95.00     0.000      0.00    0.0    0.0
  

  Analysis begun on:  Wed Nov  5 16:30:43 2025
  Analysis ended on:  Wed Nov  5 16:30:45 2025
  Total elapsed time: 00:00:02