
  EPA STORM WATER MANAGEMENT MODEL - VERSION 5.2 (Build 5.2.4)
  PYSWMM TOOLKIT API - VERSION v1.0 (2023-11-27)
  ------------------------------------------------------------

  WARNING 04: minimum elevation drop used for Conduit WS02004404WS02004405
  WARNING 03: negative offset ignored for Link YS02001904YS02001907
  
  ****************
  Analysis Options
  ****************
  Flow Units ............... LPS
  Process Models:
    Rainfall/Runoff ........ YES
    RDII ................... NO
    Snowmelt ............... NO
    Groundwater ............ NO
    Flow Routing ........... YES
    Ponding Allowed ........ NO
    Water Quality .......... NO
  Infiltration Method ...... HORTON
  Flow Routing Method ...... DYNWAVE
  Surcharge Method ......... EXTRAN
  Starting Date ............ 08/28/2015 08:00:00
  Ending Date .............. 08/28/2015 16:00:00
  Antecedent Dry Days ...... 8.0
  Report Time Step ......... 00:01:00
  Wet Time Step ............ 00:01:00
  Dry Time Step ............ 00:01:00
  Routing Time Step ........ 30.00 sec
  Variable Time Step ....... YES
  Maximum Trials ........... 8
  Number of Threads ........ 4
  Head Tolerance ........... 0.001500 m
  
  
  **************************        Volume         Depth
  Runoff Quantity Continuity     hectare-m            mm
  **************************     ---------       -------
  Initial LID Storage ......         0.049         1.488
  Total Precipitation ......         1.854        55.886
  Evaporation Loss .........         0.000         0.000
  Infiltration Loss ........         0.076         2.283
  Surface Runoff ...........         1.362        41.057
  Final Storage ............         0.466        14.057
  Continuity Error (%) .....        -0.039
  
  
  **************************        Volume        Volume
  Flow Routing Continuity        hectare-m      10^6 ltr
  **************************     ---------     ---------
  Dry Weather Inflow .......         0.602         6.020
  Wet Weather Inflow .......         1.362        13.619
  Groundwater Inflow .......         0.000         0.000
  RDII Inflow ..............         0.000         0.000
  External Inflow ..........         0.105         1.045
  External Outflow .........         1.756        17.560
  Flooding Loss ............         0.287         2.869
  Evaporation Loss .........         0.000         0.000
  Exfiltration Loss ........         0.000         0.000
  Initial Stored Volume ....         0.303         3.031
  Final Stored Volume ......         0.334         3.338
  Continuity Error (%) .....        -0.219
  
  
  *************************
  Highest Continuity Errors
  *************************
  Node YS02001884 (4.87%)
  Node YS02001583 (-4.81%)
  Node YS02001774 (1.89%)
  
  
  ***************************
  Time-Step Critical Elements
  ***************************
  Link WS02004404WS02004405 (32.32%)
  Link WS02006238WS02006235 (19.25%)
  Link WS02006252WS02006251 (11.79%)
  Link YS02001791YS02001793 (9.60%)
  Link WS02006235WS02006234 (7.16%)
  
  
  ********************************
  Highest Flow Instability Indexes
  ********************************
  Link WS02006113WS02006111 (29)
  Link WS02006252WS02006251 (17)
  Link WS02006111WS02006112 (17)
  Link YS02006558YS02006561 (15)
  Link WS02006238WS02006235 (15)
  
  
  *********************************
  Most Frequent Nonconverging Nodes
  *********************************
  Node CC-1 (13.65%)
  Node CC-2 (13.65%)
  Node JK-1 (13.65%)
  Node JK-2 (13.65%)
  Node WSC (13.65%)
  
  
  *************************
  Routing Time Step Summary
  *************************
  Minimum Time Step           :     0.00 sec
  Average Time Step           :     3.42 sec
  Maximum Time Step           :     7.04 sec
  % of Time in Steady State   :     0.00
  Average Iterations per Step :     3.20
  % of Steps Not Converging   :    13.65
  Time Step Frequencies       :
     30.000 - 13.228 sec      :     0.00 %
     13.228 -  5.833 sec      :    24.38 %
      5.833 -  2.572 sec      :    33.33 %
      2.572 -  1.134 sec      :    24.03 %
      1.134 -  0.500 sec      :    18.26 %
  
  
  ***************************
  Subcatchment Runoff Summary
  ***************************
  
  ------------------------------------------------------------------------------------------------------------------------------
                            Total      Total      Total      Total     Imperv       Perv      Total       Total     Peak  Runoff
                           Precip      Runon       Evap      Infil     Runoff     Runoff     Runoff      Runoff   Runoff   Coeff
  Subcatchment                 mm         mm         mm         mm         mm         mm         mm    10^6 ltr      LPS
  ------------------------------------------------------------------------------------------------------------------------------
  sub60                     55.89       0.00       0.00       1.35      37.03       3.82      40.85        0.54   379.53   0.731
  sub61                     55.89       0.00       0.00       2.08      37.00       5.69      42.69        0.78   553.76   0.764
  sub62                     55.89       0.00       0.00       0.92      39.44       2.60      42.04        1.15   753.89   0.752
  sub63                     55.89       0.00       0.00       3.82      31.69       9.45      41.14        0.93   626.83   0.736
  sub64                     55.89       0.00       0.00       1.83      36.08       4.70      40.78        0.98   618.95   0.730
  sub65                     55.89       0.00       0.00       1.68      38.94       4.29      43.23        1.19   724.69   0.773
  sub66                     55.89       0.00       0.00       4.48      30.63       8.37      39.01        1.82   939.41   0.698
  sub67                     55.89       0.00       0.00       0.91      40.44       2.69      43.13        0.80   588.64   0.772
  sub68                     55.89       0.00       0.00       1.60      35.71       4.37      40.08        1.10   753.87   0.717
  sub69                     55.89       0.00       0.00       1.46      37.57       5.19      42.75        1.58   937.29   0.765
  sub70                     55.89       0.00       0.00       4.93      30.09      10.63      40.72        1.18   543.63   0.729
  sub71                     55.89       0.00       0.00       0.85      35.82       2.35      38.17        1.00   625.33   0.683
  sub72                     55.89       0.00       0.00       0.81      38.69       2.18      40.87        0.56   323.54   0.731
  

  ***********************
  LID Performance Summary
  ***********************

  --------------------------------------------------------------------------------------------------------------------
                                         Total      Evap     Infil   Surface    Drain    Initial     Final  Continuity
                                        Inflow      Loss      Loss   Outflow   Outflow   Storage   Storage       Error
  Subcatchment      LID Control             mm        mm        mm        mm        mm        mm        mm           %
  --------------------------------------------------------------------------------------------------------------------
  sub60             GreenRoof            55.89      0.00      0.00      0.00      0.00      7.05     63.00       -0.10
  sub61             GreenRoof            55.89      0.00      0.00      0.00      0.00      7.05     63.00       -0.10
  sub62             GreenRoof            55.89      0.00      0.00      0.00      0.00      7.05     63.00       -0.10
  sub63             GreenRoof            55.89      0.00      0.00      0.00      0.00      7.05     63.00       -0.10
  sub64             GreenRoof            55.89      0.00      0.00      0.00      0.00      7.05     63.00       -0.10
  sub65             GreenRoof            55.89      0.00      0.00      0.00      0.00      7.05     63.00       -0.10
  sub66             GreenRoof            55.89      0.00      0.00      0.00      0.00      7.05     63.00       -0.10
  sub67             GreenRoof            55.89      0.00      0.00      0.00      0.00      7.05     63.00       -0.10
  sub68             GreenRoof            55.89      0.00      0.00      0.00      0.00      7.05     63.00       -0.10
  sub69             GreenRoof            55.89      0.00      0.00      0.00      0.00      7.05     63.00       -0.10
  sub70             GreenRoof            55.89      0.00      0.00      0.00      0.00      7.05     63.00       -0.10
  sub71             GreenRoof            55.89      0.00      0.00      0.00      0.00      7.05     63.00       -0.10
  sub72             GreenRoof            55.89      0.00      0.00      0.00      0.00      7.05     63.00       -0.10
  
  ******************
  Node Depth Summary
  ******************
  
  ---------------------------------------------------------------------------------
                                 Average  Maximum  Maximum  Time of Max    Reported
                                   Depth    Depth      HGL   Occurrence   Max Depth
  Node                 Type       Meters   Meters   Meters  days hr:min      Meters
  ---------------------------------------------------------------------------------
  WS02001211           JUNCTION     0.60     0.64     5.48     0  03:00        0.64
  WS02001212           JUNCTION     0.33     0.38     5.45     0  02:59        0.38
  WS02001213           JUNCTION     0.53     0.65     5.41     0  02:59        0.65
  WS02003059           JUNCTION     0.59     0.72     5.40     0  02:58        0.72
  WS02003060           JUNCTION     0.30     0.45     5.38     0  02:58        0.45
  WS02003066           JUNCTION     0.15     0.30     5.85     0  02:57        0.30
  WS02003067           JUNCTION     0.42     0.70     6.02     0  02:57        0.70
  WS02003069           JUNCTION     0.33     0.51     5.09     0  02:58        0.51
  WS02003072           JUNCTION     0.39     0.57     4.94     0  02:59        0.57
  WS02003073           JUNCTION     0.23     0.35     4.41     0  02:59        0.35
  WS02004138           JUNCTION     0.13     0.14     7.39     0  00:29        0.14
  WS02004139           JUNCTION     0.54     0.58     5.49     0  03:01        0.58
  WS02004401           JUNCTION     0.51     0.85     6.85     0  02:54        0.85
  WS02004402           JUNCTION     0.54     0.88     6.84     0  02:54        0.88
  WS02004403           JUNCTION     0.56     0.89     6.82     0  02:55        0.89
  WS02004404           JUNCTION     0.64     0.96     6.81     0  02:55        0.96
  WS02004405           JUNCTION     0.64     0.96     6.81     0  02:55        0.95
  WS02004406           JUNCTION     0.65     0.96     6.79     0  02:55        0.96
  WS02004407           JUNCTION     0.13     0.30     6.61     0  02:55        0.30
  WS02004409           JUNCTION     0.30     0.67     6.44     0  02:55        0.67
  WS02004410           JUNCTION     0.33     0.68     6.40     0  02:56        0.68
  WS02004411           JUNCTION     0.35     0.69     6.37     0  02:56        0.69
  WS02004412           JUNCTION     0.37     0.70     6.34     0  02:56        0.70
  WS02004413           JUNCTION     0.53     0.86     6.33     0  02:57        0.86
  WS02006109           JUNCTION     0.57     1.38     7.99     0  02:44        1.08
  WS02006110           JUNCTION     0.57     1.48     8.07     0  02:44        1.00
  WS02006111           JUNCTION     0.14     0.29     6.99     0  02:34        0.29
  WS02006112           JUNCTION     0.66     1.09     6.98     0  02:32        1.05
  WS02006113           JUNCTION     0.21     0.46     7.35     0  02:45        0.46
  WS02006115           JUNCTION     0.39     0.75     6.89     0  02:25        0.75
  WS02006116           JUNCTION     0.48     0.83     6.87     0  02:54        0.83
  WS02006228           JUNCTION     0.56     1.26     7.91     0  02:44        1.23
  WS02006229           JUNCTION     0.53     1.29     7.99     0  02:32        1.29
  WS02006230           JUNCTION     0.53     1.52     8.26     0  02:32        1.52
  WS02006231           JUNCTION     0.34     1.37     8.50     0  02:25        1.19
  WS02006232           JUNCTION     0.46     1.47     8.50     0  02:08        1.30
  WS02006234           JUNCTION     0.39     1.72     8.87     0  02:10        1.23
  WS02006235           JUNCTION     0.43     2.00     9.16     0  02:10        1.25
  WS02006238           JUNCTION     0.45     2.06     9.21     0  02:10        1.30
  WS02006239           JUNCTION     0.42     1.96     9.17     0  02:10        1.28
  WS02006240           JUNCTION     0.39     1.89     9.18     0  02:08        1.24
  WS02006242           JUNCTION     0.44     1.55     8.82     0  02:08        1.44
  WS02006243           JUNCTION     0.37     1.48     8.90     0  02:08        1.48
  WS02006245           JUNCTION     0.38     1.56     9.04     0  02:46        1.56
  WS02006247           JUNCTION     0.39     1.47     8.97     0  02:46        1.47
  WS02006248           JUNCTION     0.37     1.10     8.69     0  02:08        1.10
  WS02006249           JUNCTION     0.39     1.09     8.69     0  02:08        1.09
  WS02006251           JUNCTION     0.39     1.55     9.22     0  02:08        1.21
  WS02006252           JUNCTION     0.26     1.50     9.74     0  00:00        0.87
  WS02006256           JUNCTION     1.02     2.35     9.28     0  00:00        2.35
  WSF200               JUNCTION     0.13     0.31     5.54     0  02:30        0.31
  YS02001580           JUNCTION     0.10     1.05     9.59     0  02:07        0.77
  YS02001583           JUNCTION     0.13     1.14     9.64     0  02:07        0.82
  YS02001586           JUNCTION     0.22     1.13     9.30     0  02:07        1.13
  YS02001590           JUNCTION     0.33     1.38     9.24     0  02:07        1.37
  YS02001593           JUNCTION     0.25     1.30     9.17     0  02:07        1.28
  YS02001596           JUNCTION     0.36     1.66     9.08     0  02:07        1.66
  YS02001600           JUNCTION     0.46     1.87     9.00     0  02:07        1.87
  YS02001601           JUNCTION     0.65     2.06     8.90     0  02:06        2.06
  YS02001602           JUNCTION     0.55     1.87     8.77     0  02:06        1.87
  YS02001605           JUNCTION     0.51     1.78     8.68     0  02:06        1.78
  YS02001607           JUNCTION     0.48     1.65     8.50     0  02:06        1.65
  YS02001610           JUNCTION     0.52     1.68     8.48     0  02:06        1.68
  YS02001613           JUNCTION     0.48     1.68     8.52     0  02:06        1.66
  YS02001616           JUNCTION     0.41     1.61     8.52     0  02:11        1.61
  YS02001619           JUNCTION     0.39     1.61     8.54     0  02:11        1.61
  YS02001622           JUNCTION     0.38     1.58     8.48     0  02:11        1.58
  YS02001625           JUNCTION     0.64     1.78     8.38     0  02:09        1.78
  YS02001629           JUNCTION     0.52     1.85     8.40     0  02:06        1.85
  YS02001633           JUNCTION     0.59     2.03     8.48     0  02:10        1.99
  YS02001641           JUNCTION     0.57     1.97     8.40     0  02:10        1.94
  YS02001644           JUNCTION     0.56     1.92     8.35     0  02:10        1.92
  YS02001647           JUNCTION     0.34     1.80     8.41     0  02:11        1.72
  YS02001649           JUNCTION     0.39     2.01     8.40     0  02:11        1.91
  YS02001652           JUNCTION     0.27     1.88     8.48     0  02:11        1.73
  YS02001655           JUNCTION     0.20     1.74     8.59     0  02:11        1.50
  YS02001658           JUNCTION     0.14     1.66     8.81     0  02:11        1.25
  YS02001661           JUNCTION     0.16     1.35     8.75     0  02:12        1.02
  YS02001664           JUNCTION     0.07     0.56     8.49     0  02:12        0.49
  YS02001745           JUNCTION     0.07     0.73     8.25     0  02:12        0.73
  YS02001748           JUNCTION     0.13     1.76     8.84     0  02:11        1.16
  YS02001751           JUNCTION     0.17     1.64     8.52     0  02:11        1.33
  YS02001754           JUNCTION     0.23     1.76     8.37     0  02:11        1.59
  YS02001757           JUNCTION     0.40     1.96     8.22     0  02:12        1.94
  YS02001759           JUNCTION     0.34     1.94     8.30     0  02:12        1.93
  YS02001762           JUNCTION     0.33     1.93     8.33     0  02:11        1.91
  YS02001765           JUNCTION     0.31     1.93     8.38     0  02:11        1.88
  YS02001767           JUNCTION     0.31     1.92     8.41     0  02:11        1.87
  YS02001770           JUNCTION     0.32     1.93     8.43     0  02:11        1.90
  YS02001774           JUNCTION     0.38     2.05     8.47     0  02:09        1.96
  YS02001779           JUNCTION     0.21     1.68     8.37     0  02:09        1.68
  YS02001783           JUNCTION     0.28     1.32     7.46     0  02:10        1.27
  YS02001784           JUNCTION     0.29     1.20     7.27     0  02:10        1.16
  YS02001786           JUNCTION     0.24     0.92     6.95     0  02:10        0.87
  YS02001788           JUNCTION     0.18     0.63     6.60     0  02:11        0.63
  YS02001790           JUNCTION     0.21     0.72     6.37     0  02:15        0.72
  YS02001791           JUNCTION     0.13     0.44     5.91     0  02:14        0.43
  YS02001793           JUNCTION     0.07     0.29     5.12     0  02:15        0.28
  YS02001882           JUNCTION     0.34     1.66     8.37     0  02:11        1.66
  YS02001884           JUNCTION     0.42     1.78     8.40     0  02:11        1.78
  YS02001887           JUNCTION     0.50     1.85     8.39     0  02:11        1.85
  YS02001890           JUNCTION     0.53     1.81     8.32     0  02:10        1.81
  YS02001895           JUNCTION     0.31     1.60     8.35     0  02:11        1.60
  YS02001898           JUNCTION     0.31     1.64     8.37     0  02:11        1.64
  YS02001901           JUNCTION     0.42     1.73     8.34     0  02:11        1.73
  YS02001904           JUNCTION     0.40     1.66     8.29     0  02:11        1.66
  YS02001907           JUNCTION     0.72     1.96     8.25     0  02:10        1.96
  YS02001910           JUNCTION     0.52     1.97     8.47     0  02:11        1.83
  YS02001915           JUNCTION     0.34     1.91     8.63     0  02:11        1.69
  YS02001918           JUNCTION     0.17     1.81     8.88     0  02:10        1.39
  YS02001920           JUNCTION     0.25     2.14     9.15     0  02:11        1.47
  YS02001923           JUNCTION     0.13     2.03     9.29     0  02:11        1.23
  YS02001926           JUNCTION     0.17     1.90     9.35     0  02:11        1.05
  YS02001929           JUNCTION     0.09     1.78     9.47     0  02:11        0.82
  YS02006553           JUNCTION     0.72     2.06     8.34     0  02:11        2.06
  YS02006556           JUNCTION     0.69     2.11     8.42     0  02:11        2.11
  YS02006558           JUNCTION     0.73     2.16     8.43     0  02:11        2.16
  YS02006561           JUNCTION     0.17     1.02     7.68     0  02:10        0.88
  YS02163301           JUNCTION     0.54     1.93     8.44     0  02:10        1.90
  YS02163601           JUNCTION     0.63     2.05     8.45     0  02:10        2.00
  YS02164001           JUNCTION     0.56     1.97     8.43     0  02:10        1.92
  CC-1                 OUTFALL      0.00     0.00     0.00     0  00:00        0.00
  CC-2                 OUTFALL      0.00     0.00     0.00     0  00:00        0.00
  JK-1                 OUTFALL      0.00     0.00     0.00     0  00:00        0.00
  JK-2                 OUTFALL      0.00     0.00     0.00     0  00:00        0.00
  WSC                  OUTFALL      0.23     0.35     1.02     0  03:00        0.35
  CC-storage           STORAGE      0.83     1.60     7.10     0  02:32        1.60
  JK-storage           STORAGE      3.03     4.22     5.02     0  02:25        4.18
  XR-storage           STORAGE      7.83     9.26     7.26     0  08:00        9.26
  
  
  *******************
  Node Inflow Summary
  *******************
  
  -------------------------------------------------------------------------------------------------
                                  Maximum  Maximum                  Lateral       Total        Flow
                                  Lateral    Total  Time of Max      Inflow      Inflow     Balance
                                   Inflow   Inflow   Occurrence      Volume      Volume       Error
  Node                 Type           LPS      LPS  days hr:min    10^6 ltr    10^6 ltr     Percent
  -------------------------------------------------------------------------------------------------
  WS02001211           JUNCTION      7.35   200.39     0  03:03       0.212        5.44       0.611
  WS02001212           JUNCTION      0.00   202.53     0  03:41           0        5.41       0.290
  WS02001213           JUNCTION      0.00   204.95     0  03:40           0        5.39       0.331
  WS02003059           JUNCTION      0.00   210.08     0  03:40           0        5.38       0.592
  WS02003060           JUNCTION     16.53   747.33     0  02:31       0.476        8.95       0.157
  WS02003066           JUNCTION      0.00   535.31     0  02:57           0        3.12       0.040
  WS02003067           JUNCTION      0.00   535.26     0  02:57           0        3.13       0.129
  WS02003069           JUNCTION      0.32   746.93     0  02:58     0.00922        8.93       0.166
  WS02003072           JUNCTION      0.00   746.69     0  02:59           0        8.92       0.227
  WS02003073           JUNCTION      1.82   748.27     0  02:59      0.0524        8.95       0.234
  WS02004138           JUNCTION      0.00   380.00     0  00:00           0        5.25       0.053
  WS02004139           JUNCTION      0.32   191.16     0  00:29     0.00924        5.26       0.509
  WS02004401           JUNCTION      0.00   537.84     0  02:25           0        3.22       0.307
  WS02004402           JUNCTION      0.00   537.63     0  02:25           0        3.21       0.313
  WS02004403           JUNCTION      0.00   536.23     0  02:26           0         3.2       0.307
  WS02004404           JUNCTION      0.16   536.73     0  02:26     0.00467         3.2       0.258
  WS02004405           JUNCTION      0.04   536.49     0  02:55      0.0011        3.19       0.384
  WS02004406           JUNCTION      0.00   536.33     0  02:54           0        3.18       0.641
  WS02004407           JUNCTION      0.00   536.29     0  02:55           0        3.16       0.030
  WS02004409           JUNCTION      0.00   536.21     0  02:55           0        3.16       0.073
  WS02004410           JUNCTION      0.00   535.88     0  02:55           0        3.16       0.125
  WS02004411           JUNCTION      0.00   535.62     0  02:56           0        3.15       0.164
  WS02004412           JUNCTION      0.00   535.44     0  02:56           0        3.15       0.223
  WS02004413           JUNCTION      0.00   535.41     0  02:56           0        3.14       0.402
  WS02006109           JUNCTION      1.23   561.37     0  02:32      0.0354        3.27       0.251
  WS02006110           JUNCTION      0.00   564.27     0  02:32           0        3.26       0.195
  WS02006111           JUNCTION      0.00   563.47     0  02:34           0        3.25       0.023
  WS02006112           JUNCTION      0.00   543.82     0  02:34           0        3.25       0.533
  WS02006113           JUNCTION      0.00   572.70     0  02:44           0        3.25       0.048
  WS02006115           JUNCTION      0.00   555.29     0  02:40           0        3.24       0.191
  WS02006116           JUNCTION      0.00   541.42     0  02:20           0        3.23       0.154
  WS02006228           JUNCTION      0.00   558.47     0  02:21           0        3.24       0.104
  WS02006229           JUNCTION      0.00   558.36     0  02:21           0        3.24       0.158
  WS02006230           JUNCTION     10.28   588.46     0  02:15       0.296        3.25       0.147
  WS02006231           JUNCTION      0.00   578.18     0  02:31           0        2.95      -0.153
  WS02006232           JUNCTION      0.00   577.50     0  02:31           0        2.96       0.368
  WS02006234           JUNCTION      0.00   573.67     0  02:31           0        2.95      -0.313
  WS02006235           JUNCTION      0.00   566.84     0  02:31           0        3.02       0.291
  WS02006238           JUNCTION      0.00   425.77     0  02:35           0        2.24      -0.142
  WS02006239           JUNCTION      0.00   423.91     0  02:35           0        2.21      -0.094
  WS02006240           JUNCTION      0.00   420.27     0  02:35           0        2.17      -0.050
  WS02006242           JUNCTION      0.00   420.22     0  02:35           0        2.14      -0.146
  WS02006243           JUNCTION      0.00   420.40     0  02:35           0        2.13      -0.049
  WS02006245           JUNCTION      0.00   420.67     0  02:35           0        2.13       0.429
  WS02006247           JUNCTION      0.00   421.30     0  02:35           0        2.13      -0.004
  WS02006248           JUNCTION      0.00   421.91     0  02:40           0        2.13      -0.107
  WS02006249           JUNCTION      0.00   458.97     0  00:00           0        2.31       0.549
  WS02006251           JUNCTION      0.08   406.75     0  02:43     0.00222        2.31       0.012
  WS02006252           JUNCTION      0.00   400.00     0  00:00           0         2.3      -0.309
  WS02006256           JUNCTION      0.00   300.00     0  00:00           0        1.17      -0.804
  WSF200               JUNCTION      0.00   535.34     0  02:57           0        3.12       0.014
  YS02001580           JUNCTION      0.00   129.95     0  02:07           0     0.00412      -1.388
  YS02001583           JUNCTION      0.00   156.22     0  02:06           0      0.0151      -4.585
  YS02001586           JUNCTION    543.63   543.68     0  02:15        1.18        1.19       0.102
  YS02001590           JUNCTION      0.00   318.17     0  02:11           0        1.04      -0.033
  YS02001593           JUNCTION      0.00   318.00     0  02:11           0        1.04       0.005
  YS02001596           JUNCTION      0.00   317.97     0  02:25           0        1.04      -0.008
  YS02001600           JUNCTION      0.00   317.96     0  02:25           0        1.04       0.006
  YS02001601           JUNCTION    937.29  1254.62     0  02:14        1.58        2.62       0.023
  YS02001602           JUNCTION      0.00   512.06     0  02:06           0        1.87       0.018
  YS02001605           JUNCTION      0.00   511.93     0  02:06           0         1.8       0.021
  YS02001607           JUNCTION      0.00   511.37     0  02:06           0         1.8       0.105
  YS02001610           JUNCTION      0.00   511.03     0  02:06           0        1.82       0.124
  YS02001613           JUNCTION      0.00   512.25     0  02:06           0        1.56       0.100
  YS02001616           JUNCTION      0.00   511.70     0  02:06           0        1.56       0.020
  YS02001619           JUNCTION    939.41   939.41     0  02:15        1.82        3.36      -0.003
  YS02001622           JUNCTION      0.00   925.96     0  02:06           0        3.33       0.001
  YS02001625           JUNCTION      0.00  1047.52     0  02:15           0        3.38       0.274
  YS02001629           JUNCTION      0.00   936.72     0  02:06           0        2.85       0.013
  YS02001633           JUNCTION    724.89  1357.44     0  02:09         1.2        3.99       0.088
  YS02001641           JUNCTION      0.00  1357.68     0  02:09           0        3.94       0.070
  YS02001644           JUNCTION    618.99  1730.43     0  02:09       0.981        4.91       0.067
  YS02001647           JUNCTION      0.00  1731.20     0  02:09           0        4.81       0.008
  YS02001649           JUNCTION      0.00  1950.39     0  02:08           0        5.75       0.007
  YS02001652           JUNCTION      0.00   719.68     0  02:13           0        0.94      -0.109
  YS02001655           JUNCTION      0.15   718.51     0  02:13     0.00443       0.939       0.023
  YS02001658           JUNCTION      0.00   716.95     0  02:13           0       0.934      -0.014
  YS02001661           JUNCTION      0.00   754.47     0  02:12           0       0.934       0.016
  YS02001664           JUNCTION    626.83   626.83     0  02:13       0.934       0.934      -0.011
  YS02001745           JUNCTION    379.53   411.65     0  02:11       0.537       0.538       0.243
  YS02001748           JUNCTION      0.04   583.11     0  02:11      0.0013        0.54      -0.471
  YS02001751           JUNCTION      0.01   392.05     0  02:12    0.000317        0.55       0.109
  YS02001754           JUNCTION      0.26   390.81     0  02:12     0.00749       0.566      -0.191
  YS02001757           JUNCTION      0.00  3123.79     0  02:12           0        8.26       0.016
  YS02001759           JUNCTION    553.80  1233.52     0  02:13       0.784        1.94      -0.013
  YS02001762           JUNCTION      0.00   704.94     0  02:15           0        1.16       0.010
  YS02001765           JUNCTION      0.00   705.11     0  02:15           0        1.16       0.015
  YS02001767           JUNCTION      0.54   705.23     0  02:15      0.0154        1.16       0.020
  YS02001770           JUNCTION    754.05   754.05     0  02:13        1.16         1.2      -0.010
  YS02001774           JUNCTION      0.00   373.02     0  02:09           0      0.0703       1.927
  YS02001779           JUNCTION      0.01   379.44     0  02:09    0.000144      0.0286      -2.894
  YS02001783           JUNCTION      0.00  1156.35     0  02:13           0        3.09       0.006
  YS02001784           JUNCTION      1.06  1157.56     0  02:13      0.0305        3.12       0.014
  YS02001786           JUNCTION      0.06  1157.58     0  02:13     0.00162        3.12       0.022
  YS02001788           JUNCTION      0.07  1158.12     0  02:13     0.00204        3.12       0.009
  YS02001790           JUNCTION      0.15  1172.61     0  02:11     0.00446        3.13       0.029
  YS02001791           JUNCTION      0.00  1284.40     0  02:14           0        3.13      -0.022
  YS02001793           JUNCTION      0.00  1220.64     0  02:19           0        3.13       0.004
  YS02001882           JUNCTION      0.00    59.14     0  02:08           0      0.0125       4.910
  YS02001884           JUNCTION      0.00    75.63     0  02:08           0      0.0481       5.117
  YS02001887           JUNCTION    589.09   590.52     0  02:13       0.815       0.848       0.509
  YS02001890           JUNCTION      0.00   591.50     0  02:13           0       0.808       0.620
  YS02001895           JUNCTION      0.00   515.67     0  02:14           0       0.791       0.182
  YS02001898           JUNCTION      0.00   515.31     0  02:14           0       0.789       0.046
  YS02001901           JUNCTION      0.00   515.59     0  02:14           0       0.792       0.392
  YS02001904           JUNCTION      0.00   515.68     0  02:14           0       0.796       0.335
  YS02001907           JUNCTION      0.00  1524.50     0  02:12           0        2.43       0.746
  YS02001910           JUNCTION      0.00  1027.05     0  02:12           0        1.64       0.432
  YS02001915           JUNCTION    625.35  1027.28     0  02:12       0.999        1.68       0.081
  YS02001918           JUNCTION      0.00   450.48     0  02:12           0        0.71      -0.029
  YS02001920           JUNCTION      2.87   449.53     0  02:12      0.0827       0.694       0.149
  YS02001923           JUNCTION      0.04   440.86     0  02:11     0.00109       0.595      -0.121
  YS02001926           JUNCTION      0.05   545.16     0  02:11      0.0015       0.576      -0.124
  YS02001929           JUNCTION    323.54   400.70     0  02:11       0.562       0.564      -0.018
  YS02006553           JUNCTION      0.00   792.03     0  02:22           0        2.01       0.582
  YS02006556           JUNCTION      0.00   792.01     0  02:23           0        2.01       0.397
  YS02006558           JUNCTION    754.75  1179.53     0  02:10        1.13        3.12       0.103
  YS02006561           JUNCTION      0.00  1178.26     0  02:10           0        3.09       0.000
  YS02163301           JUNCTION      0.00   922.69     0  02:09           0        2.84       0.054
  YS02163601           JUNCTION      0.11  1357.88     0  02:09     0.00317        3.93       0.127
  YS02164001           JUNCTION      0.00  1357.58     0  02:09           0        3.93       0.057
  CC-1                 OUTFALL       0.00   683.00     0  00:00           0        3.45       0.000
  CC-2                 OUTFALL       0.00   683.00     0  00:00           0        3.24       0.000
  JK-1                 OUTFALL       0.00  1000.00     0  00:00           0        1.89       0.000
  JK-2                 OUTFALL       0.00  1000.00     0  00:00           0      0.0484       0.000
  WSC                  OUTFALL       0.00   747.95     0  03:00           0        8.93       0.000
  CC-storage           STORAGE       0.00  3124.81     0  02:12           0        10.5      -0.229
  JK-storage           STORAGE       0.00  1208.51     0  02:12           0        3.28       0.127
  XR-storage           STORAGE     200.00   200.00     0  00:00        5.76        6.36       0.001
  
  
  **********************
  Node Surcharge Summary
  **********************
  
  Surcharging occurs when water rises above the top of the highest conduit.
  ---------------------------------------------------------------------
                                               Max. Height   Min. Depth
                                   Hours       Above Crown    Below Rim
  Node                 Type      Surcharged         Meters       Meters
  ---------------------------------------------------------------------
  WS02006109           JUNCTION        1.37          0.556        1.264
  WS02006110           JUNCTION        0.53          0.571        1.279
  WS02006112           JUNCTION        0.61          0.094        1.586
  WS02006228           JUNCTION        1.36          0.433        1.767
  WS02006229           JUNCTION        1.37          0.494        1.956
  WS02006230           JUNCTION        0.53          0.439        1.131
  WS02006231           JUNCTION        0.68          0.663        0.867
  WS02006232           JUNCTION        1.40          0.766        0.714
  WS02006234           JUNCTION        0.92          0.996        0.244
  WS02006235           JUNCTION        1.33          1.286        0.004
  WS02006238           JUNCTION        1.37          1.343        0.087
  WS02006239           JUNCTION        1.34          1.219        0.071
  WS02006240           JUNCTION        1.34          1.175        0.215
  WS02006242           JUNCTION        1.37          0.820        0.000
  WS02006243           JUNCTION        1.33          0.770        0.000
  WS02006245           JUNCTION        1.32          0.850        0.000
  WS02006247           JUNCTION        1.34          0.760        0.000
  WS02006248           JUNCTION        1.32          0.380        0.000
  WS02006249           JUNCTION        1.33          0.390        0.000
  WS02006251           JUNCTION        0.73          0.519        0.661
  WS02006252           JUNCTION        1.51          1.100        0.000
  WS02006256           JUNCTION        3.90          2.050        0.000
  YS02001580           JUNCTION        0.41          0.450        0.000
  YS02001583           JUNCTION        0.42          0.500        0.000
  YS02001586           JUNCTION        0.52          0.510        0.000
  YS02001590           JUNCTION        0.59          0.727        0.023
  YS02001593           JUNCTION        0.59          0.685        0.155
  YS02001596           JUNCTION        0.69          0.934        0.136
  YS02001600           JUNCTION        0.82          1.190        0.000
  YS02001601           JUNCTION        1.18          1.440        0.000
  YS02001602           JUNCTION        1.05          1.270        0.000
  YS02001605           JUNCTION        1.00          1.180        0.000
  YS02001607           JUNCTION        0.57          0.648        0.032
  YS02001610           JUNCTION        0.59          0.680        0.000
  YS02001613           JUNCTION        0.56          0.675        0.025
  YS02001616           JUNCTION        0.52          0.610        0.000
  YS02001619           JUNCTION        0.51          0.610        0.000
  YS02001622           JUNCTION        0.51          0.577        0.043
  YS02001625           JUNCTION        0.67          0.780        0.000
  YS02001629           JUNCTION        0.47          0.470        0.000
  YS02001633           JUNCTION        0.69          1.007        0.053
  YS02001641           JUNCTION        0.63          0.965        0.135
  YS02001644           JUNCTION        0.60          0.920        0.000
  YS02001647           JUNCTION        0.42          0.800        0.100
  YS02001649           JUNCTION        0.52          1.007        0.043
  YS02001652           JUNCTION        0.37          0.854        0.276
  YS02001655           JUNCTION        0.25          0.736        0.464
  YS02001658           JUNCTION        0.12          0.665        0.635
  YS02001661           JUNCTION        0.01          0.278        1.112
  YS02001748           JUNCTION        0.07          0.684        0.506
  YS02001751           JUNCTION        0.17          0.641        0.559
  YS02001754           JUNCTION        0.29          0.711        0.439
  YS02001757           JUNCTION        0.58          0.964        0.246
  YS02001759           JUNCTION        0.49          0.939        0.271
  YS02001762           JUNCTION        0.46          0.935        0.215
  YS02001765           JUNCTION        0.43          0.926        0.174
  YS02001767           JUNCTION        0.41          0.917        0.113
  YS02001770           JUNCTION        0.37          0.904        0.016
  YS02001774           JUNCTION        0.45          1.050        0.000
  YS02001779           JUNCTION        0.29          0.680        0.000
  YS02001783           JUNCTION        0.36          0.515        1.085
  YS02001784           JUNCTION        0.34          0.399        1.091
  YS02001786           JUNCTION        0.24          0.121        1.309
  YS02001882           JUNCTION        0.31          0.659        0.171
  YS02001884           JUNCTION        0.32          0.721        0.149
  YS02001887           JUNCTION        0.35          0.802        0.148
  YS02001890           JUNCTION        0.36          0.760        0.000
  YS02001895           JUNCTION        0.30          0.599        0.151
  YS02001898           JUNCTION        0.30          0.609        0.131
  YS02001901           JUNCTION        0.34          0.733        0.137
  YS02001904           JUNCTION        0.33          0.656        0.194
  YS02001907           JUNCTION        0.55          0.950        0.000
  YS02001910           JUNCTION        0.38          0.967        0.133
  YS02001915           JUNCTION        0.31          0.915        0.085
  YS02001918           JUNCTION        0.23          0.810        0.000
  YS02001920           JUNCTION        0.25          1.140        0.000
  YS02001923           JUNCTION        0.01          0.820        0.000
  YS02001926           JUNCTION        0.01          0.900        0.000
  YS02001929           JUNCTION        0.01          0.780        0.000
  YS02006553           JUNCTION        0.56          1.059        0.131
  YS02006556           JUNCTION        0.46          1.071        0.279
  YS02006558           JUNCTION        0.45          1.059        0.341
  YS02006561           JUNCTION        0.20          0.222        0.928
  YS02163301           JUNCTION        0.67          0.928        0.102
  YS02163601           JUNCTION        0.72          1.052        0.028
  YS02164001           JUNCTION        0.64          0.968        0.132
  
  
  *********************
  Node Flooding Summary
  *********************
  
  Flooding refers to all water that overflows a node, whether it ponds or not.
  --------------------------------------------------------------------------
                                                             Total   Maximum
                                 Maximum   Time of Max       Flood    Ponded
                        Hours       Rate    Occurrence      Volume     Depth
  Node                 Flooded       LPS   days hr:min    10^6 ltr    Meters
  --------------------------------------------------------------------------
  WS02006242              0.01     27.59      0  02:10       0.000     0.000
  WS02006243              0.01     43.47      0  02:08       0.000     0.000
  WS02006245              0.01      0.30      0  02:46       0.000     0.000
  WS02006247              0.01      0.28      0  02:46       0.000     0.000
  WS02006248              0.01     26.41      0  02:10       0.001     0.000
  WS02006249              0.71     88.63      0  02:46       0.166     0.000
  WS02006252              0.01    245.63      0  00:00       0.000     0.000
  WS02006256              1.08    293.19      0  00:00       0.349     0.000
  YS02001580              0.01    100.69      0  02:07       0.000     0.000
  YS02001583              0.01     30.68      0  02:07       0.000     0.000
  YS02001586              0.31    226.11      0  02:15       0.134     0.000
  YS02001600              0.01      1.30      0  02:07       0.000     0.000
  YS02001601              0.46    856.78      0  02:14       0.751     0.000
  YS02001602              0.37     61.96      0  02:22       0.073     0.000
  YS02001605              0.01      4.01      0  02:06       0.000     0.000
  YS02001610              0.31    426.00      0  02:15       0.280     0.000
  YS02001616              0.01      0.95      0  02:11       0.000     0.000
  YS02001625              0.29   1047.51      0  02:15       0.566     0.000
  YS02001629              0.06    121.37      0  02:12       0.017     0.000
  YS02001644              0.09    452.38      0  02:13       0.086     0.000
  YS02001774              0.01     74.34      0  02:09       0.000     0.000
  YS02001779              0.07    295.70      0  02:09       0.013     0.000
  YS02001890              0.07     84.50      0  02:13       0.012     0.000
  YS02001907              0.19   1088.19      0  02:12       0.415     0.000
  YS02001918              0.01    202.29      0  02:11       0.003     0.000
  YS02001920              0.01     41.05      0  02:11       0.000     0.000
  YS02001923              0.01    110.44      0  02:11       0.000     0.000
  YS02001926              0.01    184.95      0  02:11       0.001     0.000
  YS02001929              0.01     51.10      0  02:11       0.000     0.000
  
  
  **********************
  Storage Volume Summary
  **********************
  
  ------------------------------------------------------------------------------------------------
                         Average    Avg   Evap  Exfil     Maximum    Max    Time of Max    Maximum
                          Volume   Pcnt   Pcnt   Pcnt      Volume   Pcnt     Occurrence    Outflow
  Storage Unit           1000 m³   Full   Loss   Loss     1000 m³   Full    days hr:min        LPS
  ------------------------------------------------------------------------------------------------
  CC-storage               2.310   36.0    0.0    0.0       4.467   69.7       0  02:32    1783.53
  JK-storage               0.152   52.3    0.0    0.0       0.212   72.8       0  02:25    2300.00
  XR-storage               0.939   65.2    0.0    0.0       1.111   77.2       0  08:00     380.00
  
  
  ***********************
  Outfall Loading Summary
  ***********************
  
  -----------------------------------------------------------
                         Flow       Avg       Max       Total
                         Freq      Flow      Flow      Volume
  Outfall Node           Pcnt       LPS       LPS    10^6 ltr
  -----------------------------------------------------------
  CC-1                  29.71    683.00    683.00       3.450
  CC-2                  27.72    683.00    683.00       3.244
  JK-1                  14.33   1000.00   1000.00       1.886
  JK-2                   0.25   1000.00   1000.00       0.048
  WSC                   99.93    366.81    747.95       8.931
  -----------------------------------------------------------
  System                34.39   3732.81   3366.23      17.559
  
  
  ********************
  Link Flow Summary
  ********************
  
  -----------------------------------------------------------------------------
                                 Maximum  Time of Max   Maximum    Max/    Max/
                                  |Flow|   Occurrence   |Veloc|    Full    Full
  Link                 Type          LPS  days hr:min     m/sec    Flow   Depth
  -----------------------------------------------------------------------------
  1                    CONDUIT    747.95     0  03:00      3.07    0.26    0.35
  WS02001211WS02001212 CONDUIT    202.53     0  03:41      0.54    0.15    0.51
  WS02001212WS02001213 CONDUIT    204.95     0  03:40      1.04    0.32    0.36
  WS02001213WS02003059 CONDUIT    210.08     0  03:40      0.47    0.35    0.67
  WS02003059WS02003060 CONDUIT    217.00     0  03:42      0.67    0.14    0.58
  WS02003060WS02003069 CONDUIT    746.61     0  02:58      1.77    0.29    0.40
  WS02003066WSF200     CONDUIT    535.34     0  02:57      2.73    0.09    0.23
  WS02003067WS02003066 CONDUIT    535.31     0  02:57      1.20    0.17    0.42
  WS02003069WS02003072 CONDUIT    746.69     0  02:59      1.51    0.36    0.45
  WS02003072WS02003073 CONDUIT    746.44     0  02:59      1.59    1.61    0.43
  WS02004138WS02004139 CONDUIT    190.84     0  00:29      2.17    0.04    0.33
  WS02004139WS02001211 CONDUIT    193.04     0  03:03      0.54    0.24    0.47
  WS02004401WS02004402 CONDUIT    537.63     0  02:25      0.97    0.65    0.86
  WS02004402WS02004403 CONDUIT    536.23     0  02:26      0.97    0.77    0.88
  WS02004403WS02004404 CONDUIT    536.57     0  02:26      0.92    0.39    0.93
  WS02004404WS02004405 CONDUIT    536.45     0  02:55      1.08    5.26    0.96
  WS02004405WS02004406 CONDUIT    536.33     0  02:54      0.99    1.06    0.96
  WS02004406WS02004407 CONDUIT    536.29     0  02:55      1.04    0.24    0.63
  WS02004407WS02004409 CONDUIT    536.21     0  02:55      1.53    0.19    0.48
  WS02004409WS02004410 CONDUIT    535.88     0  02:55      0.99    0.69    0.67
  WS02004410WS02004411 CONDUIT    535.62     0  02:56      0.94    0.73    0.69
  WS02004411WS02004412 CONDUIT    535.44     0  02:56      0.92    0.76    0.69
  WS02004412WS02004413 CONDUIT    535.41     0  02:56      0.82    0.36    0.78
  WS02004413WS02003067 CONDUIT    535.26     0  02:57      1.11    0.23    0.59
  WS02006109WS02006110 CONDUIT    564.27     0  02:32      1.12    1.08    1.00
  WS02006110WS02006113 CONDUIT    572.70     0  02:44      1.39    0.52    0.79
  WS02006111WS02006112 CONDUIT    543.82     0  02:34      1.82    0.26    0.67
  WS02006112WS02006115 CONDUIT    555.29     0  02:40      0.80    0.33    0.87
  WS02006113WS02006111 CONDUIT    563.47     0  02:34      2.47    0.68    0.46
  WS02006115WS02006116 CONDUIT    541.42     0  02:20      0.97    0.69    0.76
  WS02006116WS02004401 CONDUIT    537.84     0  02:25      0.98    0.74    0.84
  WS02006228WS02006109 CONDUIT    560.14     0  02:32      1.11    2.45    1.00
  WS02006229WS02006228 CONDUIT    558.47     0  02:21      1.15    1.85    1.00
  WS02006230WS02006229 CONDUIT    558.36     0  02:21      1.45   12.43    1.00
  WS02006231WS02006230 CONDUIT    578.18     0  02:15      1.58    8.77    1.00
  WS02006232WS02006231 CONDUIT    578.18     0  02:31      1.51    1.21    1.00
  WS02006234WS02006232 CONDUIT    577.50     0  02:31      1.50    1.17    1.00
  WS02006235WS02006234 CONDUIT    573.67     0  02:31      1.49    6.05    1.00
  WS02006238WS02006235 CONDUIT    425.29     0  02:35      1.57    0.95    1.00
  WS02006239WS02006238 CONDUIT    425.77     0  02:35      1.11    1.36    1.00
  WS02006240WS02006239 CONDUIT    423.91     0  02:35      1.24    1.33    1.00
  WS02006242WS02006240 CONDUIT    420.27     0  02:35      1.12    1.67    1.00
  WS02006243WS02006242 CONDUIT    420.22     0  02:35      1.39    0.90    1.00
  WS02006245WS02006243 CONDUIT    420.40     0  02:35      1.45    1.24    1.00
  WS02006247WS02006245 CONDUIT    420.67     0  02:35      1.44    3.34    1.00
  WS02006248WS02006247 CONDUIT    421.30     0  02:35      1.45    0.92    1.00
  WS02006249WS02006248 CONDUIT    421.91     0  02:40      1.37    2.31    1.00
  WS02006251WS02006249 CONDUIT    458.97     0  00:00      1.99    1.32    1.00
  WS02006252WS02006251 CONDUIT    406.68     0  02:43     25.11    1.49    1.00
  WS02006256WS02006235 CONDUIT    288.91     0  00:00      4.23    3.06    1.00
  WSF200WS02003060     CONDUIT    535.37     0  02:57      1.76    0.12    0.32
  YS02001580YS02001583 CONDUIT    129.95     0  02:07      0.64    0.50    1.00
  YS02001583YS02001586 CONDUIT    155.77     0  02:06      0.65    0.24    1.00
  YS02001586YS02001590 CONDUIT    318.17     0  02:11      1.27    0.56    1.00
  YS02001590YS02001593 CONDUIT    318.00     0  02:11      1.12    2.00    1.00
  YS02001593YS02001596 CONDUIT    317.97     0  02:25      1.74    0.50    1.00
  YS02001596YS02001600 CONDUIT    317.96     0  02:25      1.23    0.62    1.00
  YS02001600YS02001601 CONDUIT    318.01     0  02:22      1.12    0.55    1.00
  YS02001601YS02001602 CONDUIT    512.06     0  02:06      1.81    1.85    1.00
  YS02001602YS02001605 CONDUIT    511.93     0  02:06      1.81   10.83    1.00
  YS02001605YS02001607 CONDUIT    511.37     0  02:06      1.81    2.80    1.00
  YS02001607YS02001610 CONDUIT    511.03     0  02:06      0.65    0.49    1.00
  YS02001610YS02001613 CONDUIT    512.25     0  02:06      0.65    0.59    1.00
  YS02001613YS02001616 CONDUIT    511.70     0  02:06      0.66    0.44    1.00
  YS02001616YS02001619 CONDUIT    506.29     0  02:06      0.66    0.88    1.00
  YS02001619YS02001622 CONDUIT    925.96     0  02:06      1.18    1.36    1.00
  YS02001622YS02001625 CONDUIT    935.34     0  02:06      1.19    0.50    1.00
  YS02001625YS02001629 CONDUIT    936.72     0  02:06      1.20    0.45    1.00
  YS02001629YS02163301 CONDUIT    922.69     0  02:09      1.17    1.14    1.00
  YS02001633YS02163601 CONDUIT   1357.77     0  02:09      1.73    1.43    1.00
  YS02001641YS02001644 CONDUIT   1357.46     0  02:09      1.73    4.39    1.00
  YS02001644YS02001647 CONDUIT   1731.20     0  02:09      2.22    1.02    1.00
  YS02001647YS02001649 CONDUIT   1732.10     0  02:09      2.31    0.91    1.00
  YS02001649YS02001757 CONDUIT   1907.64     0  02:08      2.45    1.16    1.00
  YS02001652YS02001649 CONDUIT    720.79     0  02:13      0.92    0.36    1.00
  YS02001655YS02001652 CONDUIT    719.68     0  02:13      1.29    0.35    1.00
  YS02001658YS02001655 CONDUIT    718.36     0  02:13      1.90    0.30    1.00
  YS02001661YS02001658 CONDUIT    716.95     0  02:13      2.27    0.28    1.00
  YS02001664YS02001661 CONDUIT    754.47     0  02:12      2.24    0.24    0.77
  YS02001745YS02001748 CONDUIT    583.06     0  02:11      2.09    0.22    0.87
  YS02001748YS02001751 CONDUIT    392.04     0  02:12      1.63    0.20    1.00
  YS02001751YS02001754 CONDUIT    390.55     0  02:12      1.43    0.19    1.00
  YS02001754YS02001757 CONDUIT    391.09     0  02:12      0.50    0.16    1.00
  YS02001757CaochengTiaoxuchi CONDUIT   3124.81     0  02:12      3.98    1.35    1.00
  YS02001759YS02001757 CONDUIT   1235.25     0  02:13      1.57    0.88    1.00
  YS02001762YS02001759 CONDUIT    705.25     0  02:15      0.90    0.81    1.00
  YS02001765YS02001762 CONDUIT    704.94     0  02:15      0.90    0.66    1.00
  YS02001767YS02001765 CONDUIT    705.11     0  02:15      0.90    0.89    1.00
  YS02001770YS02001767 CONDUIT    704.70     0  02:15      0.90    2.79    1.00
  YS02001774YS02001770 CONDUIT    373.02     0  02:09      0.47    0.24    1.00
  YS02001779YS02001774 CONDUIT    379.44     0  02:09      0.49    0.19    1.00
  YS02001783YS02001784 CONDUIT   1156.50     0  02:13      2.30    1.59    1.00
  YS02001784YS02001785 CONDUIT   1157.52     0  02:13      2.30    2.69    1.00
  YS02001786YS02001788 CONDUIT   1158.05     0  02:13      2.47    2.23    0.89
  YS02001788YS02001790 CONDUIT   1172.45     0  02:11      2.70    0.86    0.84
  YS02001790YS02001791 CONDUIT   1284.40     0  02:14      3.43    1.40    0.70
  YS02001791YS02001793 CONDUIT   1220.64     0  02:19      6.48    0.52    0.43
  YS02001793JiankangQianchi CONDUIT   1208.51     0  02:12      2.32    0.10    0.64
  YS02001882YS02001884 CONDUIT     59.14     0  02:08      0.11    0.07    1.00
  YS02001884YS02001887 CONDUIT     75.63     0  02:08      0.10    0.10    1.00
  YS02001887YS02001890 CONDUIT    591.50     0  02:13      0.75    1.01    1.00
  YS02001890YS02001895 CONDUIT    515.67     0  02:14      0.66    0.24    1.00
  YS02001895YS02001898 CONDUIT    515.31     0  02:14      0.66    0.89    1.00
  YS02001898YS02001901 CONDUIT    515.59     0  02:14      0.66    0.33    1.00
  YS02001901YS02001904 CONDUIT    515.68     0  02:14      0.66    0.80    1.00
  YS02001904YS02001907 CONDUIT    515.49     0  02:14      0.66    0.18    1.00
  YS02001907YS02006553 CONDUIT    792.03     0  02:22      0.88    0.93    1.00
  YS02001910YS02001907 CONDUIT   1026.99     0  02:12      1.31    0.58    1.00
  YS02001915YS02001910 CONDUIT   1027.05     0  02:12      1.31    0.51    1.00
  YS02001918YS02001915 CONDUIT    451.87     0  02:12      0.58    0.25    1.00
  YS02001920YS02001918 CONDUIT    450.48     0  02:12      0.65    0.44    1.00
  YS02001923YS02001920 CONDUIT    446.66     0  02:12      0.72    0.20    1.00
  YS02001926YS02001923 CONDUIT    422.70     0  02:11      0.97    0.60    1.00
  YS02001929YS02001926 CONDUIT    411.99     0  02:11      1.15    0.20    1.00
  YS02006553YS02006556 CONDUIT    792.01     0  02:23      1.01    0.68    1.00
  YS02006556YS02006558 CONDUIT    794.75     0  02:23      1.01    0.63    1.00
  YS02006558YS02006561 CONDUIT   1178.26     0  02:10      4.17    2.60    1.00
  YS02006561YS02001783 CONDUIT   1156.35     0  02:13      2.30    0.60    1.00
  YS02163301YS02001633 CONDUIT    923.66     0  02:09      1.18    0.87    1.00
  YS02163601YS02164001 CONDUIT   1357.58     0  02:09      1.73    1.20    1.00
  YS02164001YS02001641 CONDUIT   1357.68     0  02:09      1.73    1.85    1.00
  CC-R1                PUMP       683.00     0  00:00              1.00
  CC-R2                PUMP       683.00     0  00:00              1.00
  CC-S1                PUMP       200.00     0  00:00              1.00
  CC-S2                PUMP       200.00     0  00:00              1.00
  JK-R1                PUMP      1000.00     0  00:00              1.00
  JK-R2                PUMP      1000.00     0  00:00              1.00
  JK-S                 PUMP       300.00     0  00:00              1.00
  XR-1                 PUMP        95.00     0  00:00              1.00
  XR-2                 PUMP        95.00     0  00:00              1.00
  XR-3                 PUMP        95.00     0  00:00              1.00
  XR-4                 PUMP        95.00     0  00:00              1.00
  
  
  ***************************
  Flow Classification Summary
  ***************************
  
  -------------------------------------------------------------------------------------
                      Adjusted    ---------- Fraction of Time in Flow Class ---------- 
                       /Actual         Up    Down  Sub   Sup   Up    Down  Norm  Inlet 
  Conduit               Length    Dry  Dry   Dry   Crit  Crit  Crit  Crit  Ltd   Ctrl  
  -------------------------------------------------------------------------------------
  1                       1.00   0.00  0.00  0.00  0.00  1.00  0.00  0.00  0.20  0.00
  WS02001211WS02001212    1.00   0.00  0.02  0.00  0.98  0.00  0.00  0.00  0.00  0.00
  WS02001212WS02001213    1.00   0.02  0.00  0.00  0.19  0.00  0.78  0.00  0.00  0.00
  WS02001213WS02003059    1.00   0.00  0.01  0.00  0.99  0.00  0.00  0.00  0.00  0.00
  WS02003059WS02003060    1.00   0.00  0.00  0.00  1.00  0.00  0.00  0.00  0.03  0.00
  WS02003060WS02003069    1.00   0.00  0.00  0.00  0.98  0.02  0.00  0.00  0.69  0.00
  WS02003066WSF200        1.00   0.13  0.00  0.00  0.00  0.87  0.00  0.00  0.77  0.00
  WS02003067WS02003066    1.00   0.10  0.02  0.00  0.88  0.00  0.00  0.00  0.00  0.00
  WS02003069WS02003072    1.00   0.00  0.00  0.00  1.00  0.00  0.00  0.00  0.78  0.00
  WS02003072WS02003073    1.00   0.00  0.00  0.00  0.00  0.00  0.00  1.00  0.00  0.00
  WS02004138WS02004139    1.00   0.00  0.00  0.00  0.97  0.01  0.00  0.02  0.98  0.00
  WS02004139WS02001211    1.00   0.00  0.00  0.00  0.99  0.00  0.00  0.00  0.00  0.00
  WS02004401WS02004402    1.00   0.02  0.00  0.00  0.98  0.00  0.00  0.00  0.00  0.00
  WS02004402WS02004403    1.00   0.02  0.00  0.00  0.97  0.00  0.00  0.00  0.00  0.00
  WS02004403WS02004404    1.00   0.00  0.03  0.00  0.97  0.00  0.00  0.00  0.00  0.00
  WS02004404WS02004405    1.00   0.00  0.00  0.00  1.00  0.00  0.00  0.00  0.00  0.00
  WS02004405WS02004406    1.00   0.00  0.00  0.00  1.00  0.00  0.00  0.00  0.00  0.00
  WS02004406WS02004407    1.00   0.00  0.05  0.00  0.95  0.00  0.00  0.00  0.00  0.00
  WS02004407WS02004409    1.00   0.05  0.00  0.00  0.94  0.01  0.00  0.00  0.94  0.00
  WS02004409WS02004410    1.00   0.05  0.00  0.00  0.95  0.00  0.00  0.00  0.03  0.00
  WS02004410WS02004411    1.00   0.05  0.00  0.00  0.95  0.00  0.00  0.00  0.01  0.00
  WS02004411WS02004412    1.00   0.05  0.00  0.00  0.95  0.00  0.00  0.00  0.00  0.00
  WS02004412WS02004413    1.00   0.05  0.00  0.00  0.94  0.00  0.00  0.00  0.01  0.00
  WS02004413WS02003067    1.00   0.06  0.04  0.00  0.00  0.00  0.90  0.00  0.00  0.00
  WS02006109WS02006110    1.00   0.00  0.01  0.00  0.98  0.00  0.01  0.00  0.00  0.00
  WS02006110WS02006113    1.00   0.01  0.01  0.00  0.98  0.00  0.00  0.00  0.00  0.00
  WS02006111WS02006112    1.00   0.02  0.00  0.00  0.98  0.00  0.00  0.00  0.98  0.00
  WS02006112WS02006115    1.00   0.02  0.00  0.00  0.97  0.00  0.00  0.00  0.00  0.00
  WS02006113WS02006111    1.00   0.02  0.00  0.00  0.00  0.98  0.00  0.00  0.08  0.00
  WS02006115WS02006116    1.00   0.02  0.00  0.00  0.97  0.00  0.00  0.01  0.00  0.00
  WS02006116WS02004401    1.00   0.02  0.00  0.00  0.98  0.00  0.00  0.00  0.00  0.00
  WS02006228WS02006109    1.00   0.00  0.00  0.00  1.00  0.00  0.00  0.00  0.00  0.00
  WS02006229WS02006228    1.00   0.00  0.00  0.00  0.99  0.00  0.00  0.01  0.00  0.00
  WS02006230WS02006229    1.00   0.00  0.00  0.00  0.99  0.00  0.00  0.01  0.01  0.00
  WS02006231WS02006230    1.00   0.00  0.00  0.00  0.19  0.00  0.81  0.00  0.00  0.00
  WS02006232WS02006231    1.00   0.00  0.00  0.00  0.99  0.00  0.01  0.00  0.00  0.00
  WS02006234WS02006232    1.00   0.00  0.00  0.00  1.00  0.00  0.00  0.00  0.36  0.00
  WS02006235WS02006234    1.00   0.00  0.00  0.00  0.58  0.00  0.42  0.00  0.00  0.00
  WS02006238WS02006235    1.00   0.00  0.00  0.00  1.00  0.00  0.00  0.00  0.00  0.00
  WS02006239WS02006238    1.00   0.00  0.00  0.00  1.00  0.00  0.00  0.00  0.51  0.00
  WS02006240WS02006239    1.00   0.00  0.00  0.00  0.42  0.00  0.00  0.58  0.02  0.00
  WS02006242WS02006240    1.00   0.00  0.00  0.00  1.00  0.00  0.00  0.00  0.00  0.00
  WS02006243WS02006242    1.00   0.00  0.00  0.00  0.99  0.00  0.00  0.01  0.74  0.00
  WS02006245WS02006243    1.00   0.00  0.00  0.00  0.44  0.00  0.00  0.56  0.01  0.00
  WS02006247WS02006245    1.00   0.00  0.00  0.00  0.99  0.00  0.00  0.01  0.00  0.00
  WS02006248WS02006247    1.00   0.00  0.00  0.00  0.99  0.00  0.00  0.01  0.22  0.00
  WS02006249WS02006248    1.00   0.00  0.00  0.00  0.29  0.00  0.71  0.00  0.00  0.00
  WS02006251WS02006249    1.00   0.00  0.00  0.00  0.99  0.01  0.00  0.00  0.74  0.00
  WS02006252WS02006251    1.00   0.00  0.74  0.00  0.09  0.00  0.17  0.00  0.00  0.00
  WS02006256WS02006235    1.00   0.00  0.00  0.00  0.99  0.01  0.00  0.00  0.00  0.00
  WSF200WS02003060        1.00   0.00  0.13  0.00  0.70  0.17  0.00  0.00  0.68  0.00
  YS02001580YS02001583    1.00   0.26  0.57  0.00  0.17  0.00  0.00  0.00  0.67  0.00
  YS02001583YS02001586    1.00   0.49  0.29  0.00  0.22  0.00  0.00  0.00  0.67  0.00
  YS02001586YS02001590    1.00   0.13  0.00  0.00  0.39  0.04  0.00  0.45  0.35  0.00
  YS02001590YS02001593    1.00   0.13  0.01  0.00  0.09  0.00  0.78  0.00  0.00  0.00
  YS02001593YS02001596    1.00   0.14  0.00  0.00  0.10  0.01  0.00  0.75  0.02  0.00
  YS02001596YS02001600    1.00   0.14  0.00  0.00  0.17  0.01  0.00  0.68  0.05  0.00
  YS02001600YS02001601    1.00   0.13  0.01  0.00  0.86  0.00  0.00  0.00  0.63  0.00
  YS02001601YS02001602    1.00   0.13  0.01  0.00  0.86  0.00  0.00  0.00  0.00  0.00
  YS02001602YS02001605    1.00   0.14  0.00  0.00  0.86  0.00  0.00  0.00  0.00  0.00
  YS02001605YS02001607    1.00   0.14  0.00  0.00  0.86  0.00  0.00  0.00  0.00  0.00
  YS02001607YS02001610    1.00   0.13  0.01  0.00  0.86  0.00  0.00  0.00  0.02  0.00
  YS02001610YS02001613    1.00   0.13  0.00  0.00  0.87  0.00  0.00  0.00  0.01  0.00
  YS02001613YS02001616    1.00   0.13  0.00  0.00  0.87  0.00  0.00  0.00  0.01  0.00
  YS02001616YS02001619    1.00   0.13  0.00  0.00  0.87  0.00  0.00  0.00  0.00  0.00
  YS02001619YS02001622    1.00   0.13  0.00  0.00  0.87  0.00  0.00  0.00  0.35  0.00
  YS02001622YS02001625    1.00   0.13  0.00  0.00  0.87  0.00  0.00  0.00  0.05  0.00
  YS02001625YS02001629    1.00   0.13  0.05  0.00  0.13  0.00  0.69  0.00  0.00  0.00
  YS02001629YS02163301    1.00   0.16  0.01  0.00  0.83  0.00  0.00  0.00  0.00  0.00
  YS02001633YS02163601    1.00   0.00  0.01  0.00  0.99  0.00  0.00  0.00  0.15  0.00
  YS02001641YS02001644    1.00   0.00  0.01  0.00  0.99  0.00  0.00  0.00  0.00  0.00
  YS02001644YS02001647    1.00   0.00  0.18  0.00  0.82  0.00  0.00  0.00  0.00  0.00
  YS02001647YS02001649    1.00   0.00  0.18  0.00  0.55  0.28  0.00  0.00  0.59  0.00
  YS02001649YS02001757    1.00   0.00  0.00  0.00  0.70  0.30  0.00  0.00  0.54  0.00
  YS02001652YS02001649    1.00   0.00  0.00  0.00  0.96  0.04  0.00  0.00  0.78  0.00
  YS02001655YS02001652    1.00   0.00  0.00  0.00  0.14  0.01  0.00  0.84  0.04  0.00
  YS02001658YS02001655    1.00   0.00  0.14  0.00  0.65  0.21  0.00  0.00  0.73  0.00
  YS02001661YS02001658    1.00   0.14  0.00  0.00  0.51  0.34  0.00  0.00  0.74  0.00
  YS02001664YS02001661    1.00   0.13  0.00  0.00  0.78  0.09  0.00  0.00  0.86  0.00
  YS02001745YS02001748    1.00   0.00  0.00  0.00  0.07  0.01  0.00  0.93  0.04  0.00
  YS02001748YS02001751    1.00   0.00  0.00  0.00  0.82  0.18  0.00  0.00  0.78  0.00
  YS02001751YS02001754    1.00   0.00  0.00  0.00  0.12  0.00  0.00  0.88  0.02  0.00
  YS02001754YS02001757    1.00   0.00  0.00  0.00  1.00  0.00  0.00  0.00  0.87  0.00
  YS02001757CaochengTiaoxuchi    1.00   0.00  0.00  0.00  1.00  0.00  0.00  0.00  0.86  0.00
  YS02001759YS02001757    1.00   0.00  0.00  0.00  1.00  0.00  0.00  0.00  0.63  0.00
  YS02001762YS02001759    1.00   0.00  0.00  0.00  1.00  0.00  0.00  0.00  0.05  0.00
  YS02001765YS02001762    1.00   0.00  0.00  0.00  1.00  0.00  0.00  0.00  0.77  0.00
  YS02001767YS02001765    1.00   0.00  0.00  0.00  1.00  0.00  0.00  0.00  0.00  0.00
  YS02001770YS02001767    1.00   0.00  0.00  0.00  1.00  0.00  0.00  0.00  0.00  0.00
  YS02001774YS02001770    1.00   0.00  0.13  0.00  0.60  0.00  0.27  0.00  0.03  0.00
  YS02001779YS02001774    1.00   0.00  0.00  0.00  1.00  0.00  0.00  0.00  0.80  0.00
  YS02001783YS02001784    1.00   0.00  0.19  0.00  0.81  0.00  0.00  0.00  0.58  0.00
  YS02001784YS02001785    1.00   0.00  0.00  0.00  1.00  0.00  0.00  0.00  0.18  0.00
  YS02001786YS02001788    1.00   0.00  0.00  0.00  0.80  0.20  0.00  0.00  0.00  0.00
  YS02001788YS02001790    1.00   0.00  0.00  0.00  0.21  0.79  0.00  0.00  0.83  0.00
  YS02001790YS02001791    1.00   0.00  0.00  0.00  0.01  0.99  0.00  0.00  0.16  0.00
  YS02001791YS02001793    1.00   0.00  0.00  0.00  0.00  1.00  0.00  0.00  0.01  0.00
  YS02001793JiankangQianchi    1.00   0.00  0.00  0.00  1.00  0.00  0.00  0.00  0.96  0.00
  YS02001882YS02001884    1.00   0.15  0.01  0.00  0.84  0.00  0.00  0.00  0.00  0.00
  YS02001884YS02001887    1.00   0.06  0.05  0.00  0.89  0.00  0.00  0.00  0.00  0.00
  YS02001887YS02001890    1.00   0.00  0.00  0.00  0.97  0.00  0.03  0.00  0.00  0.00
  YS02001890YS02001895    1.00   0.00  0.17  0.00  0.83  0.00  0.00  0.00  0.00  0.00
  YS02001895YS02001898    1.00   0.17  0.00  0.00  0.81  0.00  0.02  0.00  0.00  0.00
  YS02001898YS02001901    1.00   0.17  0.00  0.00  0.83  0.00  0.00  0.00  0.01  0.00
  YS02001901YS02001904    1.00   0.17  0.00  0.00  0.83  0.00  0.00  0.00  0.00  0.00
  YS02001904YS02001907    1.00   0.00  0.17  0.00  0.83  0.00  0.00  0.00  0.00  0.00
  YS02001907YS02006553    1.00   0.00  0.02  0.00  0.98  0.00  0.00  0.00  0.00  0.00
  YS02001910YS02001907    1.00   0.00  0.00  0.00  0.97  0.00  0.00  0.03  0.12  0.00
  YS02001915YS02001910    1.00   0.00  0.00  0.00  0.96  0.04  0.00  0.00  0.17  0.00
  YS02001918YS02001915    1.00   0.00  0.01  0.00  0.98  0.02  0.00  0.00  0.78  0.00
  YS02001920YS02001918    1.00   0.00  0.01  0.00  0.99  0.00  0.00  0.00  0.00  0.00
  YS02001923YS02001920    1.00   0.00  0.00  0.00  1.00  0.00  0.00  0.00  0.95  0.00
  YS02001926YS02001923    1.00   0.00  0.07  0.00  0.04  0.00  0.89  0.00  0.00  0.00
  YS02001929YS02001926    1.00   0.00  0.13  0.00  0.87  0.00  0.00  0.00  0.84  0.00
  YS02006553YS02006556    1.00   0.01  0.00  0.00  0.99  0.00  0.00  0.00  0.03  0.00
  YS02006556YS02006558    1.00   0.00  0.00  0.00  1.00  0.00  0.00  0.00  0.00  0.00
  YS02006558YS02006561    1.00   0.19  0.00  0.00  0.04  0.78  0.00  0.00  0.18  0.00
  YS02006561YS02001783    1.00   0.19  0.00  0.00  0.06  0.75  0.00  0.00  0.71  0.00
  YS02163301YS02001633    1.00   0.00  0.16  0.00  0.84  0.00  0.00  0.00  0.00  0.00
  YS02163601YS02164001    1.00   0.00  0.08  0.00  0.92  0.00  0.00  0.00  0.00  0.00
  YS02164001YS02001641    1.00   0.01  0.07  0.00  0.92  0.00  0.00  0.00  0.06  0.00
  
  
  *************************
  Conduit Surcharge Summary
  *************************
  
  ----------------------------------------------------------------------------
                                                           Hours        Hours 
                         --------- Hours Full --------   Above Full   Capacity
  Conduit                Both Ends  Upstream  Dnstream   Normal Flow   Limited
  ----------------------------------------------------------------------------
  WS02003072WS02003073        0.01      0.01      0.01      1.52         0.01
  WS02004404WS02004405        0.01      0.01      0.01      1.79         0.01
  WS02004405WS02004406        0.01      0.01      0.01      0.54         0.01
  WS02006109WS02006110        0.53      0.53      1.40      0.65         0.01
  WS02006110WS02006113        0.01      0.01      1.38      0.01         0.01
  WS02006111WS02006112        0.01      0.01      1.47      0.01         0.01
  WS02006112WS02006115        0.01      0.01      0.61      0.01         0.01
  WS02006228WS02006109        1.37      1.41      1.37      1.59         1.37
  WS02006229WS02006228        1.36      1.37      1.36      1.51         1.35
  WS02006230WS02006229        1.45      1.50      1.45      2.43         1.45
  WS02006231WS02006230        0.53      0.53      0.73      2.06         0.01
  WS02006232WS02006231        0.68      0.68      1.40      0.73         0.01
  WS02006234WS02006232        1.32      1.32      1.40      0.72         0.69
  WS02006235WS02006234        0.91      0.92      1.33      1.94         0.01
  WS02006238WS02006235        1.35      1.35      1.41      0.01         0.01
  WS02006239WS02006238        1.35      1.37      1.37      1.37         1.17
  WS02006240WS02006239        1.33      1.34      1.34      1.38         1.11
  WS02006242WS02006240        1.34      1.34      1.39      1.42         0.01
  WS02006243WS02006242        1.33      1.33      1.37      0.01         0.04
  WS02006245WS02006243        1.32      1.33      1.33      0.81         0.78
  WS02006247WS02006245        1.32      1.35      1.32      1.64         1.31
  WS02006248WS02006247        1.32      1.32      1.34      0.01         0.04
  WS02006249WS02006248        1.31      1.32      1.33      1.62         0.01
  WS02006251WS02006249        1.33      1.35      1.33      1.43         1.27
  WS02006252WS02006251        1.50      1.50      1.51      1.51         0.01
  WS02006256WS02006235        1.95      1.99      3.87      1.08         0.01
  YS02001580YS02001583        0.41      0.41      0.45      0.01         0.01
  YS02001583YS02001586        0.42      0.42      0.52      0.01         0.01
  YS02001586YS02001590        0.53      0.53      0.59      0.01         0.01
  YS02001590YS02001593        0.59      0.59      0.61      0.62         0.01
  YS02001593YS02001596        0.60      0.60      0.69      0.01         0.01
  YS02001596YS02001600        0.73      0.73      0.82      0.01         0.01
  YS02001600YS02001601        0.88      0.88      1.18      0.01         0.01
  YS02001601YS02001602        1.05      1.05      1.22      0.82         0.01
  YS02001602YS02001605        1.00      1.00      1.05      2.02         0.01
  YS02001605YS02001607        0.95      1.00      0.95      1.13         0.95
  YS02001607YS02001610        0.57      0.57      0.59      0.01         0.01
  YS02001610YS02001613        0.56      0.56      0.59      0.01         0.01
  YS02001613YS02001616        0.52      0.52      0.56      0.01         0.01
  YS02001616YS02001619        0.51      0.51      0.52      0.01         0.01
  YS02001619YS02001622        0.51      0.51      0.51      0.60         0.49
  YS02001622YS02001625        0.51      0.51      0.67      0.01         0.01
  YS02001625YS02001629        0.47      0.47      0.67      0.01         0.01
  YS02001629YS02163301        0.66      0.66      0.67      0.09         0.14
  YS02001633YS02163601        0.69      0.69      0.72      0.28         0.29
  YS02001641YS02001644        0.60      0.63      0.60      1.27         0.59
  YS02001644YS02001647        0.42      0.42      0.60      0.01         0.01
  YS02001647YS02001649        0.42      0.42      0.52      0.01         0.01
  YS02001649YS02001757        0.52      0.52      0.58      0.06         0.03
  YS02001652YS02001649        0.38      0.38      0.52      0.01         0.01
  YS02001655YS02001652        0.25      0.25      0.37      0.01         0.01
  YS02001658YS02001655        0.12      0.12      0.25      0.01         0.01
  YS02001661YS02001658        0.01      0.01      0.12      0.01         0.01
  YS02001664YS02001661        0.01      0.01      0.02      0.01         0.01
  YS02001745YS02001748        0.01      0.01      0.07      0.01         0.01
  YS02001748YS02001751        0.10      0.10      0.17      0.01         0.01
  YS02001751YS02001754        0.17      0.17      0.29      0.01         0.01
  YS02001754YS02001757        0.32      0.32      0.58      0.01         0.01
  YS02001757CaochengTiaoxuchi        0.58      0.58      1.13      0.22         0.22
  YS02001759YS02001757        0.49      0.49      0.58      0.01         0.01
  YS02001762YS02001759        0.46      0.46      0.49      0.01         0.01
  YS02001765YS02001762        0.43      0.43      0.46      0.01         0.01
  YS02001767YS02001765        0.41      0.41      0.43      0.01         0.02
  YS02001770YS02001767        0.40      0.40      0.41      0.35         0.24
  YS02001774YS02001770        0.37      0.37      0.45      0.01         0.01
  YS02001779YS02001774        0.29      0.29      0.45      0.01         0.01
  YS02001783YS02001784        0.34      0.36      0.34      0.49         0.34
  YS02001784YS02001785        0.24      0.34      0.24      0.68         0.24
  YS02001786YS02001788        0.01      0.24      0.01      0.58         0.01
  YS02001790YS02001791        0.01      0.01      0.01      0.32         0.01
  YS02001793JiankangQianchi        0.01      0.01      7.70      0.01         0.01
  YS02001882YS02001884        0.31      0.31      0.32      0.01         0.01
  YS02001884YS02001887        0.34      0.34      0.35      0.01         0.01
  YS02001887YS02001890        0.36      0.36      0.37      0.01         0.01
  YS02001890YS02001895        0.30      0.30      0.39      0.01         0.01
  YS02001895YS02001898        0.30      0.30      0.30      0.01         0.01
  YS02001898YS02001901        0.30      0.30      0.34      0.01         0.01
  YS02001901YS02001904        0.33      0.33      0.34      0.01         0.01
  YS02001904YS02001907        0.33      0.33      0.57      0.01         0.01
  YS02001907YS02006553        0.69      0.69      0.75      0.01         0.01
  YS02001910YS02001907        0.38      0.38      0.55      0.01         0.01
  YS02001915YS02001910        0.31      0.31      0.38      0.01         0.01
  YS02001918YS02001915        0.23      0.23      0.31      0.01         0.01
  YS02001920YS02001918        0.23      0.23      0.25      0.01         0.01
  YS02001923YS02001920        0.20      0.20      0.25      0.01         0.01
  YS02001926YS02001923        0.01      0.01      0.01      0.01         0.01
  YS02001929YS02001926        0.01      0.01      0.01      0.01         0.01
  YS02006553YS02006556        0.46      0.46      0.56      0.01         0.01
  YS02006556YS02006558        0.51      0.51      0.58      0.01         0.01
  YS02006558YS02006561        0.27      0.45      0.27      0.64         0.27
  YS02006561YS02001783        0.20      0.20      0.36      0.01         0.01
  YS02163301YS02001633        0.67      0.67      0.71      0.01         0.01
  YS02163601YS02164001        0.64      0.64      0.72      0.07         0.01
  YS02164001YS02001641        0.63      0.64      0.63      0.59         0.49
  
  
  ***************
  Pumping Summary
  ***************
  
  ---------------------------------------------------------------------------------------------------------
                                                  Min       Avg       Max     Total     Power    % Time Off
                        Percent   Number of      Flow      Flow      Flow    Volume     Usage    Pump Curve
  Pump                 Utilized   Start-Ups       LPS       LPS       LPS  10^6 ltr     Kw-hr    Low   High
  ---------------------------------------------------------------------------------------------------------
  CC-R1                   17.53          12      0.00    683.00    683.00     3.448     63.22    0.0   27.2
  CC-R2                   16.48          12      0.00    683.00    683.00     3.242     59.40    0.0   28.9
  CC-S1                   21.07          12      0.00    200.00    200.00     1.214      7.11    0.0    0.0
  CC-S2                   18.82          12      0.00    200.00    200.00     1.084      6.33    0.0    0.0
  JK-R1                    6.55          11      0.00   1000.00   1000.00     1.886     22.06    0.0    0.0
  JK-R2                    0.16           1      0.00   1000.00   1000.00     0.047      0.36    0.0    0.0
  JK-S                    13.48          16      0.00    300.00    300.00     1.164     16.25    0.0    0.0
  XR-1                    97.91           2      0.00     95.00     95.00     2.679      9.60    0.0    0.0
  XR-2                    93.94           2      0.00     95.00     95.00     2.570      8.76    0.0    0.0
  XR-3                     0.00           1      0.00     95.00     95.00     0.000      0.00    0.0    0.0
  XR-4                     0.00           1      0.00     95.00     95.00     0.000      0.00    0.0    0.0
  

  Analysis begun on:  Wed Nov  5 16:31:11 2025
  Analysis ended on:  Wed Nov  5 16:31:14 2025
  Total elapsed time: 00:00:03