
  EPA STORM WATER MANAGEMENT MODEL - VERSION 5.2 (Build 5.2.4)
  PYSWMM TOOLKIT API - VERSION v1.0 (2023-11-27)
  ------------------------------------------------------------

  WARNING 04: minimum elevation drop used for Conduit WS02004404WS02004405
  WARNING 03: negative offset ignored for Link YS02001904YS02001907
  
  ****************
  Analysis Options
  ****************
  Flow Units ............... LPS
  Process Models:
    Rainfall/Runoff ........ YES
    RDII ................... NO
    Snowmelt ............... NO
    Groundwater ............ NO
    Flow Routing ........... YES
    Ponding Allowed ........ NO
    Water Quality .......... NO
  Infiltration Method ...... HORTON
  Flow Routing Method ...... DYNWAVE
  Surcharge Method ......... EXTRAN
  Starting Date ............ 08/28/2015 08:00:00
  Ending Date .............. 08/28/2015 16:00:00
  Antecedent Dry Days ...... 8.0
  Report Time Step ......... 00:01:00
  Wet Time Step ............ 00:01:00
  Dry Time Step ............ 00:01:00
  Routing Time Step ........ 30.00 sec
  Variable Time Step ....... YES
  Maximum Trials ........... 8
  Number of Threads ........ 4
  Head Tolerance ........... 0.001500 m
  
  
  **************************        Volume         Depth
  Runoff Quantity Continuity     hectare-m            mm
  **************************     ---------       -------
  Initial LID Storage ......         0.049         1.488
  Total Precipitation ......         1.045        31.494
  Evaporation Loss .........         0.000         0.000
  Infiltration Loss ........         0.068         2.046
  Surface Runoff ...........         0.731        22.047
  Final Storage ............         0.295         8.906
  Continuity Error (%) .....        -0.051
  
  
  **************************        Volume        Volume
  Flow Routing Continuity        hectare-m      10^6 ltr
  **************************     ---------     ---------
  Dry Weather Inflow .......         0.602         6.020
  Wet Weather Inflow .......         0.731         7.309
  Groundwater Inflow .......         0.000         0.000
  RDII Inflow ..............         0.000         0.000
  External Inflow ..........         0.105         1.045
  External Outflow .........         1.363        13.631
  Flooding Loss ............         0.054         0.536
  Evaporation Loss .........         0.000         0.000
  Exfiltration Loss ........         0.000         0.000
  Initial Stored Volume ....         0.303         3.031
  Final Stored Volume ......         0.330         3.298
  Continuity Error (%) .....        -0.346
  
  
  *************************
  Highest Continuity Errors
  *************************
  Node YS02001583 (-7.22%)
  Node YS02001884 (5.30%)
  Node YS02001774 (2.37%)
  Node WS02006256 (-1.42%)
  Node YS02001907 (1.31%)
  
  
  ***************************
  Time-Step Critical Elements
  ***************************
  Link WS02004404WS02004405 (39.04%)
  Link WS02006238WS02006235 (21.86%)
  Link WS02006252WS02006251 (9.76%)
  Link WS02006235WS02006234 (6.20%)
  Link WS02003066WSF200 (5.67%)
  
  
  ********************************
  Highest Flow Instability Indexes
  ********************************
  Link WS02006113WS02006111 (28)
  Link WS02006252WS02006251 (27)
  Link WS02004404WS02004405 (20)
  Link WS02004403WS02004404 (19)
  Link WS02006256WS02006235 (16)
  
  
  *********************************
  Most Frequent Nonconverging Nodes
  *********************************
  Node CC-1 (18.39%)
  Node CC-2 (18.39%)
  Node JK-1 (18.39%)
  Node JK-2 (18.39%)
  Node WSC (18.39%)
  
  
  *************************
  Routing Time Step Summary
  *************************
  Minimum Time Step           :     0.00 sec
  Average Time Step           :     3.49 sec
  Maximum Time Step           :     7.04 sec
  % of Time in Steady State   :     0.00
  Average Iterations per Step :     3.49
  % of Steps Not Converging   :    18.39
  Time Step Frequencies       :
     30.000 - 13.228 sec      :     0.00 %
     13.228 -  5.833 sec      :    23.71 %
      5.833 -  2.572 sec      :    37.08 %
      2.572 -  1.134 sec      :    23.66 %
      1.134 -  0.500 sec      :    15.55 %
  
  
  ***************************
  Subcatchment Runoff Summary
  ***************************
  
  ------------------------------------------------------------------------------------------------------------------------------
                            Total      Total      Total      Total     Imperv       Perv      Total       Total     Peak  Runoff
                           Precip      Runon       Evap      Infil     Runoff     Runoff     Runoff      Runoff   Runoff   Coeff
  Subcatchment                 mm         mm         mm         mm         mm         mm         mm    10^6 ltr      LPS
  ------------------------------------------------------------------------------------------------------------------------------
  sub60                     31.49       0.00       0.00       1.24      20.46       1.67      22.14        0.29   200.51   0.703
  sub61                     31.49       0.00       0.00       1.90      20.44       2.47      22.92        0.42   287.34   0.728
  sub62                     31.49       0.00       0.00       0.84      21.79       1.14      22.92        0.63   393.48   0.728
  sub63                     31.49       0.00       0.00       3.48      17.51       4.00      21.51        0.49   308.20   0.683
  sub64                     31.49       0.00       0.00       1.67      19.93       2.01      21.94        0.53   310.19   0.697
  sub65                     31.49       0.00       0.00       1.53      21.50       1.83      23.33        0.64   359.24   0.741
  sub66                     31.49       0.00       0.00       3.99      16.90       3.25      20.16        0.94   436.77   0.640
  sub67                     31.49       0.00       0.00       0.84      22.35       1.19      23.53        0.44   317.63   0.747
  sub68                     31.49       0.00       0.00       1.46      19.73       1.90      21.63        0.60   390.82   0.687
  sub69                     31.49       0.00       0.00       1.29      21.14       2.46      23.60        0.87   474.87   0.749
  sub70                     31.49       0.00       0.00       4.25      16.91       4.51      21.43        0.62   255.76   0.680
  sub71                     31.49       0.00       0.00       0.78      19.78       1.02      20.81        0.54   320.10   0.661
  sub72                     31.49       0.00       0.00       0.74      21.35       0.94      22.30        0.31   160.33   0.708
  

  ***********************
  LID Performance Summary
  ***********************

  --------------------------------------------------------------------------------------------------------------------
                                         Total      Evap     Infil   Surface    Drain    Initial     Final  Continuity
                                        Inflow      Loss      Loss   Outflow   Outflow   Storage   Storage       Error
  Subcatchment      LID Control             mm        mm        mm        mm        mm        mm        mm           %
  --------------------------------------------------------------------------------------------------------------------
  sub60             GreenRoof            31.49      0.00      0.00      0.00      0.00      7.05     38.60       -0.14
  sub61             GreenRoof            31.49      0.00      0.00      0.00      0.00      7.05     38.60       -0.14
  sub62             GreenRoof            31.49      0.00      0.00      0.00      0.00      7.05     38.60       -0.14
  sub63             GreenRoof            31.49      0.00      0.00      0.00      0.00      7.05     38.60       -0.14
  sub64             GreenRoof            31.49      0.00      0.00      0.00      0.00      7.05     38.60       -0.14
  sub65             GreenRoof            31.49      0.00      0.00      0.00      0.00      7.05     38.60       -0.14
  sub66             GreenRoof            31.49      0.00      0.00      0.00      0.00      7.05     38.60       -0.14
  sub67             GreenRoof            31.49      0.00      0.00      0.00      0.00      7.05     38.60       -0.14
  sub68             GreenRoof            31.49      0.00      0.00      0.00      0.00      7.05     38.60       -0.14
  sub69             GreenRoof            31.49      0.00      0.00      0.00      0.00      7.05     38.60       -0.14
  sub70             GreenRoof            31.49      0.00      0.00      0.00      0.00      7.05     38.60       -0.14
  sub71             GreenRoof            31.49      0.00      0.00      0.00      0.00      7.05     38.60       -0.14
  sub72             GreenRoof            31.49      0.00      0.00      0.00      0.00      7.05     38.60       -0.14
  
  ******************
  Node Depth Summary
  ******************
  
  ---------------------------------------------------------------------------------
                                 Average  Maximum  Maximum  Time of Max    Reported
                                   Depth    Depth      HGL   Occurrence   Max Depth
  Node                 Type       Meters   Meters   Meters  days hr:min      Meters
  ---------------------------------------------------------------------------------
  WS02001211           JUNCTION     0.60     0.64     5.48     0  02:46        0.64
  WS02001212           JUNCTION     0.33     0.38     5.45     0  02:45        0.38
  WS02001213           JUNCTION     0.52     0.65     5.41     0  02:44        0.65
  WS02003059           JUNCTION     0.59     0.71     5.40     0  02:44        0.71
  WS02003060           JUNCTION     0.29     0.45     5.38     0  02:43        0.45
  WS02003066           JUNCTION     0.15     0.30     5.85     0  02:42        0.30
  WS02003067           JUNCTION     0.42     0.70     6.02     0  02:42        0.70
  WS02003069           JUNCTION     0.33     0.51     5.09     0  02:44        0.51
  WS02003072           JUNCTION     0.39     0.57     4.94     0  02:45        0.57
  WS02003073           JUNCTION     0.23     0.35     4.41     0  02:45        0.35
  WS02004138           JUNCTION     0.13     0.14     7.39     0  00:29        0.14
  WS02004139           JUNCTION     0.54     0.58     5.49     0  02:46        0.58
  WS02004401           JUNCTION     0.51     0.87     6.87     0  02:39        0.87
  WS02004402           JUNCTION     0.55     0.90     6.86     0  02:40        0.90
  WS02004403           JUNCTION     0.57     0.92     6.85     0  02:40        0.91
  WS02004404           JUNCTION     0.64     1.01     6.86     0  02:40        0.99
  WS02004405           JUNCTION     0.64     0.96     6.81     0  02:40        0.96
  WS02004406           JUNCTION     0.65     0.96     6.79     0  02:40        0.95
  WS02004407           JUNCTION     0.13     0.29     6.61     0  02:41        0.29
  WS02004409           JUNCTION     0.30     0.66     6.43     0  02:41        0.66
  WS02004410           JUNCTION     0.33     0.68     6.40     0  02:42        0.68
  WS02004411           JUNCTION     0.35     0.69     6.37     0  02:41        0.69
  WS02004412           JUNCTION     0.37     0.69     6.33     0  02:42        0.69
  WS02004413           JUNCTION     0.53     0.85     6.32     0  02:42        0.85
  WS02006109           JUNCTION     0.56     1.23     7.85     0  02:11        1.07
  WS02006110           JUNCTION     0.57     1.43     8.02     0  02:11        1.00
  WS02006111           JUNCTION     0.14     0.29     7.00     0  02:37        0.29
  WS02006112           JUNCTION     0.66     1.10     6.99     0  02:19        1.07
  WS02006113           JUNCTION     0.21     0.47     7.36     0  02:37        0.46
  WS02006115           JUNCTION     0.39     0.77     6.91     0  02:40        0.77
  WS02006116           JUNCTION     0.48     0.85     6.89     0  02:39        0.85
  WS02006228           JUNCTION     0.55     1.42     8.08     0  02:11        1.14
  WS02006229           JUNCTION     0.52     1.48     8.17     0  02:11        1.20
  WS02006230           JUNCTION     0.51     1.79     8.54     0  02:11        1.24
  WS02006231           JUNCTION     0.32     1.45     8.57     0  02:11        1.11
  WS02006232           JUNCTION     0.45     2.18     9.22     0  02:37        2.18
  WS02006234           JUNCTION     0.37     1.96     9.12     0  02:11        1.96
  WS02006235           JUNCTION     0.41     2.00     9.16     0  02:11        2.00
  WS02006238           JUNCTION     0.43     2.15     9.29     0  02:11        2.15
  WS02006239           JUNCTION     0.40     2.03     9.24     0  02:11        2.03
  WS02006240           JUNCTION     0.37     2.10     9.39     0  02:11        2.10
  WS02006242           JUNCTION     0.43     1.55     8.82     0  02:11        1.55
  WS02006243           JUNCTION     0.36     1.48     8.90     0  02:11        1.48
  WS02006245           JUNCTION     0.37     1.56     9.04     0  02:11        1.56
  WS02006247           JUNCTION     0.39     1.47     8.97     0  02:11        1.47
  WS02006248           JUNCTION     0.36     1.10     8.69     0  02:11        1.10
  WS02006249           JUNCTION     0.39     1.09     8.69     0  02:09        1.09
  WS02006251           JUNCTION     0.38     1.82     9.49     0  02:09        1.33
  WS02006252           JUNCTION     0.26     1.50     9.74     0  00:00        0.88
  WS02006256           JUNCTION     0.92     2.35     9.28     0  00:00        2.35
  WSF200               JUNCTION     0.13     0.31     5.54     0  02:42        0.30
  YS02001580           JUNCTION     0.05     1.05     9.59     0  02:02        0.76
  YS02001583           JUNCTION     0.09     1.14     9.64     0  02:02        0.80
  YS02001586           JUNCTION     0.15     1.13     9.30     0  02:02        1.13
  YS02001590           JUNCTION     0.24     1.40     9.26     0  02:00        1.36
  YS02001593           JUNCTION     0.18     1.33     9.19     0  02:00        1.28
  YS02001596           JUNCTION     0.26     1.69     9.11     0  02:00        1.65
  YS02001600           JUNCTION     0.32     1.87     9.00     0  02:00        1.84
  YS02001601           JUNCTION     0.51     2.06     8.90     0  02:00        2.06
  YS02001602           JUNCTION     0.42     1.87     8.77     0  02:02        1.83
  YS02001605           JUNCTION     0.38     1.78     8.68     0  02:02        1.65
  YS02001607           JUNCTION     0.36     1.68     8.53     0  02:02        1.37
  YS02001610           JUNCTION     0.40     1.68     8.48     0  02:02        1.41
  YS02001613           JUNCTION     0.36     1.69     8.53     0  02:02        1.36
  YS02001616           JUNCTION     0.30     1.61     8.52     0  02:02        1.28
  YS02001619           JUNCTION     0.27     1.61     8.54     0  02:02        1.25
  YS02001622           JUNCTION     0.26     1.62     8.52     0  02:02        1.23
  YS02001625           JUNCTION     0.52     1.78     8.38     0  02:02        1.47
  YS02001629           JUNCTION     0.38     1.85     8.40     0  02:02        1.46
  YS02001633           JUNCTION     0.45     1.81     8.26     0  02:02        1.48
  YS02001641           JUNCTION     0.43     1.42     7.85     0  02:02        1.24
  YS02001644           JUNCTION     0.42     1.31     7.74     0  02:02        1.17
  YS02001647           JUNCTION     0.20     0.85     7.46     0  02:10        0.84
  YS02001649           JUNCTION     0.25     1.06     7.45     0  02:09        1.03
  YS02001652           JUNCTION     0.14     0.82     7.42     0  02:09        0.81
  YS02001655           JUNCTION     0.09     0.55     7.40     0  02:11        0.55
  YS02001658           JUNCTION     0.06     0.25     7.39     0  02:03        0.24
  YS02001661           JUNCTION     0.12     0.31     7.71     0  02:02        0.30
  YS02001664           JUNCTION     0.05     0.21     8.13     0  02:02        0.21
  YS02001745           JUNCTION     0.04     0.19     7.70     0  02:02        0.19
  YS02001748           JUNCTION     0.05     0.21     7.29     0  02:02        0.21
  YS02001751           JUNCTION     0.06     0.42     7.30     0  02:10        0.41
  YS02001754           JUNCTION     0.12     0.70     7.30     0  02:11        0.69
  YS02001757           JUNCTION     0.26     1.10     7.36     0  02:07        1.02
  YS02001759           JUNCTION     0.21     0.95     7.31     0  02:10        0.95
  YS02001762           JUNCTION     0.20     0.91     7.31     0  02:10        0.91
  YS02001765           JUNCTION     0.18     0.86     7.31     0  02:11        0.86
  YS02001767           JUNCTION     0.18     0.82     7.31     0  02:10        0.81
  YS02001770           JUNCTION     0.19     0.82     7.31     0  02:09        0.81
  YS02001774           JUNCTION     0.25     0.89     7.31     0  02:10        0.89
  YS02001779           JUNCTION     0.10     0.63     7.31     0  02:10        0.63
  YS02001783           JUNCTION     0.20     0.89     7.03     0  02:07        0.89
  YS02001784           JUNCTION     0.22     0.84     6.91     0  02:07        0.84
  YS02001786           JUNCTION     0.19     0.68     6.71     0  02:06        0.68
  YS02001788           JUNCTION     0.14     0.53     6.51     0  02:07        0.53
  YS02001790           JUNCTION     0.17     0.63     6.27     0  02:08        0.62
  YS02001791           JUNCTION     0.11     0.37     5.84     0  02:08        0.37
  YS02001793           JUNCTION     0.05     0.19     5.02     0  02:07        0.19
  YS02001882           JUNCTION     0.24     0.99     7.70     0  02:07        0.96
  YS02001884           JUNCTION     0.33     1.08     7.70     0  02:06        1.06
  YS02001887           JUNCTION     0.40     1.16     7.69     0  02:06        1.15
  YS02001890           JUNCTION     0.43     1.18     7.69     0  02:07        1.18
  YS02001895           JUNCTION     0.21     0.94     7.69     0  02:07        0.94
  YS02001898           JUNCTION     0.22     0.96     7.70     0  02:07        0.96
  YS02001901           JUNCTION     0.33     1.09     7.70     0  02:07        1.08
  YS02001904           JUNCTION     0.31     1.06     7.69     0  02:07        1.06
  YS02001907           JUNCTION     0.62     1.40     7.69     0  02:07        1.40
  YS02001910           JUNCTION     0.42     1.19     7.70     0  02:06        1.18
  YS02001915           JUNCTION     0.24     0.99     7.71     0  02:06        0.98
  YS02001918           JUNCTION     0.10     0.65     7.72     0  02:06        0.64
  YS02001920           JUNCTION     0.18     0.72     7.73     0  02:07        0.72
  YS02001923           JUNCTION     0.06     0.46     7.72     0  02:06        0.46
  YS02001926           JUNCTION     0.11     0.33     7.77     0  02:07        0.33
  YS02001929           JUNCTION     0.05     0.19     7.88     0  02:04        0.19
  YS02006553           JUNCTION     0.62     1.39     7.67     0  02:07        1.39
  YS02006556           JUNCTION     0.60     1.34     7.65     0  02:07        1.34
  YS02006558           JUNCTION     0.64     1.37     7.64     0  02:07        1.36
  YS02006561           JUNCTION     0.11     0.47     7.13     0  02:07        0.47
  YS02163301           JUNCTION     0.40     1.89     8.41     0  02:02        1.46
  YS02163601           JUNCTION     0.48     1.66     8.06     0  02:02        1.41
  YS02164001           JUNCTION     0.42     1.48     7.94     0  02:02        1.28
  CC-1                 OUTFALL      0.00     0.00     0.00     0  00:00        0.00
  CC-2                 OUTFALL      0.00     0.00     0.00     0  00:00        0.00
  JK-1                 OUTFALL      0.00     0.00     0.00     0  00:00        0.00
  JK-2                 OUTFALL      0.00     0.00     0.00     0  00:00        0.00
  WSC                  OUTFALL      0.23     0.35     1.02     0  02:45        0.35
  CC-storage           STORAGE      0.76     1.40     6.90     0  02:27        1.40
  JK-storage           STORAGE      3.17     4.21     5.01     0  02:07        4.20
  XR-storage           STORAGE      7.87     9.26     7.26     0  08:00        9.26
  
  
  *******************
  Node Inflow Summary
  *******************
  
  -------------------------------------------------------------------------------------------------
                                  Maximum  Maximum                  Lateral       Total        Flow
                                  Lateral    Total  Time of Max      Inflow      Inflow     Balance
                                   Inflow   Inflow   Occurrence      Volume      Volume       Error
  Node                 Type           LPS      LPS  days hr:min    10^6 ltr    10^6 ltr     Percent
  -------------------------------------------------------------------------------------------------
  WS02001211           JUNCTION      7.35   200.09     0  02:53       0.212        5.44       0.611
  WS02001212           JUNCTION      0.00   201.81     0  03:46           0        5.41       0.290
  WS02001213           JUNCTION      0.00   203.79     0  03:47           0        5.39       0.331
  WS02003059           JUNCTION      0.00   208.81     0  03:44           0        5.38       0.592
  WS02003060           JUNCTION     16.53   740.79     0  02:43       0.476        8.88       0.160
  WS02003066           JUNCTION      0.00   530.92     0  02:42           0        3.06       0.043
  WS02003067           JUNCTION      0.00   530.47     0  02:42           0        3.06       0.134
  WS02003069           JUNCTION      0.32   739.73     0  02:43     0.00922        8.87       0.168
  WS02003072           JUNCTION      0.00   739.11     0  02:44           0        8.85       0.230
  WS02003073           JUNCTION      1.82   740.27     0  02:45      0.0524        8.88       0.237
  WS02004138           JUNCTION      0.00   380.00     0  00:00           0        5.25       0.053
  WS02004139           JUNCTION      0.32   191.16     0  00:29     0.00924        5.26       0.509
  WS02004401           JUNCTION      0.00   545.81     0  02:38           0        3.16       0.315
  WS02004402           JUNCTION      0.00   542.06     0  02:38           0        3.15       0.322
  WS02004403           JUNCTION      0.00   541.74     0  02:38           0        3.14       0.312
  WS02004404           JUNCTION      0.16   547.19     0  02:40     0.00467        3.13       0.247
  WS02004405           JUNCTION      0.04   593.13     0  02:40      0.0011        3.12       0.358
  WS02004406           JUNCTION      0.00   539.32     0  02:40           0        3.11       0.655
  WS02004407           JUNCTION      0.00   535.68     0  02:40           0        3.09       0.031
  WS02004409           JUNCTION      0.00   534.79     0  02:41           0        3.09       0.077
  WS02004410           JUNCTION      0.00   534.13     0  02:41           0        3.09       0.132
  WS02004411           JUNCTION      0.00   532.01     0  02:41           0        3.09       0.173
  WS02004412           JUNCTION      0.00   531.81     0  02:42           0        3.08       0.234
  WS02004413           JUNCTION      0.00   531.41     0  02:42           0        3.07       0.418
  WS02006109           JUNCTION      1.23   567.35     0  02:37      0.0354         3.2       0.264
  WS02006110           JUNCTION      0.00   567.70     0  02:37           0        3.19       0.204
  WS02006111           JUNCTION      0.00   576.90     0  02:37           0        3.18       0.026
  WS02006112           JUNCTION      0.00   555.43     0  02:37           0        3.18       0.532
  WS02006113           JUNCTION      0.00   577.72     0  02:37           0        3.18       0.050
  WS02006115           JUNCTION      0.00   569.00     0  02:18           0        3.17       0.198
  WS02006116           JUNCTION      0.00   548.91     0  02:37           0        3.16       0.092
  WS02006228           JUNCTION      0.00   564.67     0  02:37           0        3.17       0.117
  WS02006229           JUNCTION      0.00   565.37     0  02:37           0        3.17       0.156
  WS02006230           JUNCTION     10.28   594.37     0  02:11       0.296        3.18       0.114
  WS02006231           JUNCTION      0.00   581.14     0  03:24           0        2.88      -0.161
  WS02006232           JUNCTION      0.00   579.98     0  03:24           0        2.89       0.418
  WS02006234           JUNCTION      0.00   572.99     0  03:24           0        2.88      -0.376
  WS02006235           JUNCTION      0.00   564.83     0  02:26           0        2.97       0.279
  WS02006238           JUNCTION      0.00   433.22     0  02:10           0        2.31      -0.145
  WS02006239           JUNCTION      0.00   431.27     0  02:10           0        2.26      -0.094
  WS02006240           JUNCTION      0.00   425.86     0  02:10           0        2.22      -0.058
  WS02006242           JUNCTION      0.00   425.77     0  02:10           0        2.19      -0.142
  WS02006243           JUNCTION      0.00   426.47     0  02:10           0        2.17      -0.097
  WS02006245           JUNCTION      0.00   427.19     0  02:10           0        2.17       0.467
  WS02006247           JUNCTION      0.00   426.74     0  02:10           0        2.17       0.001
  WS02006248           JUNCTION      0.00   427.19     0  02:10           0        2.17      -0.115
  WS02006249           JUNCTION      0.00   458.97     0  00:00           0        2.31       0.562
  WS02006251           JUNCTION      0.08   409.45     0  02:09     0.00222        2.31      -0.005
  WS02006252           JUNCTION      0.00   400.00     0  00:00           0         2.3      -0.304
  WS02006256           JUNCTION      0.00   300.00     0  00:00           0       0.999      -1.397
  WSF200               JUNCTION      0.00   531.15     0  02:42           0        3.05       0.017
  YS02001580           JUNCTION      0.00   133.79     0  02:02           0     0.00443      -0.073
  YS02001583           JUNCTION      0.00   195.99     0  02:02           0      0.0153      -6.737
  YS02001586           JUNCTION    255.76   258.70     0  02:15       0.619       0.631       0.253
  YS02001590           JUNCTION      0.00   258.17     0  02:04           0       0.617      -0.051
  YS02001593           JUNCTION      0.00   258.18     0  02:04           0       0.617      -0.002
  YS02001596           JUNCTION      0.00   258.21     0  02:04           0       0.617      -0.031
  YS02001600           JUNCTION      0.00   258.22     0  02:04           0       0.617       0.013
  YS02001601           JUNCTION    474.87   731.86     0  02:03       0.873        1.49       0.050
  YS02001602           JUNCTION      0.00   552.71     0  02:01           0        1.38       0.030
  YS02001605           JUNCTION      0.00   552.95     0  02:01           0        1.38       0.028
  YS02001607           JUNCTION      0.00   553.19     0  02:01           0        1.38       0.124
  YS02001610           JUNCTION      0.00   545.86     0  02:02           0        1.38       0.152
  YS02001613           JUNCTION      0.00   553.69     0  02:02           0        1.38       0.104
  YS02001616           JUNCTION      0.00   571.79     0  02:02           0        1.38       0.015
  YS02001619           JUNCTION    436.77   951.58     0  02:02        0.94        2.32      -0.012
  YS02001622           JUNCTION      0.00   964.04     0  02:02           0        2.32      -0.004
  YS02001625           JUNCTION      0.00   935.38     0  02:02           0        2.32       0.378
  YS02001629           JUNCTION      0.00   935.26     0  02:02           0        2.31       0.014
  YS02001633           JUNCTION    359.44  1252.84     0  02:03       0.648        2.95       0.109
  YS02001641           JUNCTION      0.00  1253.20     0  02:03           0        2.95       0.094
  YS02001644           JUNCTION    310.23  1561.44     0  02:03       0.528        3.48       0.090
  YS02001647           JUNCTION      0.00  1563.78     0  02:03           0        3.47       0.015
  YS02001649           JUNCTION      0.00  1928.05     0  02:04           0        3.96       0.011
  YS02001652           JUNCTION      0.00   363.91     0  02:04           0       0.491      -0.242
  YS02001655           JUNCTION      0.15   313.77     0  02:03     0.00443       0.492       0.194
  YS02001658           JUNCTION      0.00   308.43     0  02:02           0       0.488      -0.024
  YS02001661           JUNCTION      0.00   307.93     0  02:02           0       0.488       0.074
  YS02001664           JUNCTION    308.20   308.20     0  02:02       0.488       0.488      -0.016
  YS02001745           JUNCTION    200.52   200.52     0  02:02       0.291       0.291      -0.007
  YS02001748           JUNCTION      0.04   200.29     0  02:02      0.0013       0.292      -0.029
  YS02001751           JUNCTION      0.01   200.35     0  02:02    0.000317       0.292       0.407
  YS02001754           JUNCTION      0.26   214.90     0  02:06     0.00749       0.299      -0.457
  YS02001757           JUNCTION      0.00  2562.86     0  02:06           0        5.33       0.052
  YS02001759           JUNCTION    287.38   596.24     0  02:06       0.421        1.07      -0.020
  YS02001762           JUNCTION      0.00   384.05     0  02:06           0       0.646       0.018
  YS02001765           JUNCTION      0.00   362.91     0  02:06           0       0.646       0.014
  YS02001767           JUNCTION      0.54   376.66     0  02:06      0.0154       0.646       0.022
  YS02001770           JUNCTION    393.63   393.63     0  02:03       0.632       0.665      -0.008
  YS02001774           JUNCTION      0.00    97.71     0  02:03           0       0.049       2.430
  YS02001779           JUNCTION      0.01    69.19     0  02:07    0.000144      0.0146       0.089
  YS02001783           JUNCTION      0.00   947.71     0  02:07           0        1.93       0.021
  YS02001784           JUNCTION      1.06   948.94     0  02:07      0.0305        1.96       0.029
  YS02001786           JUNCTION      0.06   949.46     0  02:07     0.00162        1.97       0.036
  YS02001788           JUNCTION      0.07   949.44     0  02:07     0.00204        1.97       0.015
  YS02001790           JUNCTION      0.15   949.85     0  02:07     0.00446        1.97       0.025
  YS02001791           JUNCTION      0.00  1023.14     0  02:08           0        1.97       0.002
  YS02001793           JUNCTION      0.00   957.38     0  02:07           0        1.97       0.007
  YS02001882           JUNCTION      0.00    24.60     0  02:02           0      0.0124       5.272
  YS02001884           JUNCTION      0.00    54.83     0  02:02           0      0.0478       5.601
  YS02001887           JUNCTION    318.08   318.08     0  02:02        0.45       0.483       0.949
  YS02001890           JUNCTION      0.00   271.91     0  02:02           0       0.443       1.176
  YS02001895           JUNCTION      0.00   266.74     0  02:04           0       0.437       0.311
  YS02001898           JUNCTION      0.00   254.01     0  02:05           0       0.436       0.119
  YS02001901           JUNCTION      0.00   229.30     0  02:04           0       0.438       0.761
  YS02001904           JUNCTION      0.00   227.92     0  02:06           0       0.443       0.669
  YS02001907           JUNCTION      0.00   667.57     0  02:09           0        1.37       1.326
  YS02001910           JUNCTION      0.00   462.68     0  02:09           0       0.933       0.775
  YS02001915           JUNCTION    320.12   450.96     0  02:09       0.544       0.934       0.172
  YS02001918           JUNCTION      0.00   192.81     0  02:08           0        0.39       0.080
  YS02001920           JUNCTION      2.87   174.60     0  02:06      0.0827       0.391       0.270
  YS02001923           JUNCTION      0.04   160.04     0  02:04     0.00109       0.309      -0.041
  YS02001926           JUNCTION      0.05   160.29     0  02:04      0.0015       0.308       0.123
  YS02001929           JUNCTION    160.33   160.33     0  02:04       0.306       0.306      -0.013
  YS02006553           JUNCTION      0.00   667.04     0  02:09           0        1.36       0.867
  YS02006556           JUNCTION      0.00   666.82     0  02:09           0        1.37       0.600
  YS02006558           JUNCTION    391.70   948.98     0  02:07        0.62        1.96       0.164
  YS02006561           JUNCTION      0.00   949.08     0  02:07           0        1.93       0.005
  YS02163301           JUNCTION      0.00   894.16     0  02:04           0        2.31       0.061
  YS02163601           JUNCTION      0.11  1253.11     0  02:03     0.00317        2.95       0.161
  YS02164001           JUNCTION      0.00  1253.15     0  02:03           0        2.95       0.072
  CC-1                 OUTFALL       0.00   683.00     0  00:00           0         3.6       0.000
  CC-2                 OUTFALL       0.00   683.00     0  00:00           0       0.205       0.000
  JK-1                 OUTFALL       0.00  1000.00     0  00:00           0       0.914       0.000
  JK-2                 OUTFALL       0.00  1000.00     0  00:00           0      0.0484       0.000
  WSC                  OUTFALL       0.00   739.51     0  02:45           0        8.86       0.000
  CC-storage           STORAGE       0.00  2386.09     0  02:05           0        7.55      -0.343
  JK-storage           STORAGE       0.00   957.78     0  02:07           0        2.12       0.077
  XR-storage           STORAGE     200.00   200.00     0  00:00        5.76        6.36       0.001
  
  
  **********************
  Node Surcharge Summary
  **********************
  
  Surcharging occurs when water rises above the top of the highest conduit.
  ---------------------------------------------------------------------
                                               Max. Height   Min. Depth
                                   Hours       Above Crown    Below Rim
  Node                 Type      Surcharged         Meters       Meters
  ---------------------------------------------------------------------
  WS02004404           JUNCTION        0.01          0.005        2.775
  WS02006109           JUNCTION        1.38          0.412        1.408
  WS02006110           JUNCTION        0.33          0.523        1.327
  WS02006112           JUNCTION        0.51          0.103        1.577
  WS02006228           JUNCTION        1.38          0.595        1.605
  WS02006229           JUNCTION        1.38          0.678        1.772
  WS02006230           JUNCTION        0.35          0.712        0.858
  WS02006231           JUNCTION        0.52          0.737        0.793
  WS02006232           JUNCTION        1.40          1.480        0.000
  WS02006234           JUNCTION        1.05          1.240        0.000
  WS02006235           JUNCTION        1.33          1.290        0.000
  WS02006238           JUNCTION        1.38          1.430        0.000
  WS02006239           JUNCTION        1.35          1.290        0.000
  WS02006240           JUNCTION        1.38          1.390        0.000
  WS02006242           JUNCTION        1.39          0.820        0.000
  WS02006243           JUNCTION        1.37          0.770        0.000
  WS02006245           JUNCTION        1.37          0.850        0.000
  WS02006247           JUNCTION        1.37          0.760        0.000
  WS02006248           JUNCTION        1.36          0.380        0.000
  WS02006249           JUNCTION        1.36          0.390        0.000
  WS02006251           JUNCTION        0.62          0.794        0.386
  WS02006252           JUNCTION        1.55          1.100        0.000
  WS02006256           JUNCTION        4.14          2.050        0.000
  YS02001580           JUNCTION        0.07          0.450        0.000
  YS02001583           JUNCTION        0.09          0.500        0.000
  YS02001586           JUNCTION        0.24          0.510        0.000
  YS02001590           JUNCTION        0.30          0.750        0.000
  YS02001593           JUNCTION        0.31          0.712        0.128
  YS02001596           JUNCTION        0.38          0.965        0.105
  YS02001600           JUNCTION        0.48          1.190        0.000
  YS02001601           JUNCTION        0.75          1.440        0.000
  YS02001602           JUNCTION        0.65          1.270        0.000
  YS02001605           JUNCTION        0.61          1.180        0.000
  YS02001607           JUNCTION        0.25          0.680        0.000
  YS02001610           JUNCTION        0.27          0.680        0.000
  YS02001613           JUNCTION        0.25          0.692        0.008
  YS02001616           JUNCTION        0.21          0.610        0.000
  YS02001619           JUNCTION        0.20          0.610        0.000
  YS02001622           JUNCTION        0.20          0.620        0.000
  YS02001625           JUNCTION        0.34          0.780        0.000
  YS02001629           JUNCTION        0.12          0.470        0.000
  YS02001633           JUNCTION        0.36          0.791        0.269
  YS02001641           JUNCTION        0.29          0.416        0.684
  YS02001644           JUNCTION        0.25          0.308        0.612
  YS02001649           JUNCTION        0.02          0.064        0.986
  YS02001757           JUNCTION        0.09          0.096        1.114
  YS02001783           JUNCTION        0.13          0.089        1.511
  YS02001784           JUNCTION        0.09          0.037        1.453
  YS02001884           JUNCTION        0.03          0.023        0.847
  YS02001887           JUNCTION        0.12          0.107        0.843
  YS02001890           JUNCTION        0.13          0.133        0.627
  YS02001901           JUNCTION        0.09          0.088        0.782
  YS02001904           JUNCTION        0.08          0.064        0.786
  YS02001907           JUNCTION        0.30          0.390        0.560
  YS02001910           JUNCTION        0.16          0.191        0.909
  YS02006553           JUNCTION        0.32          0.391        0.799
  YS02006556           JUNCTION        0.24          0.297        1.053
  YS02006558           JUNCTION        0.23          0.269        1.131
  YS02163301           JUNCTION        0.34          0.891        0.139
  YS02163601           JUNCTION        0.38          0.658        0.422
  YS02164001           JUNCTION        0.30          0.484        0.616
  
  
  *********************
  Node Flooding Summary
  *********************
  
  Flooding refers to all water that overflows a node, whether it ponds or not.
  --------------------------------------------------------------------------
                                                             Total   Maximum
                                 Maximum   Time of Max       Flood    Ponded
                        Hours       Rate    Occurrence      Volume     Depth
  Node                 Flooded       LPS   days hr:min    10^6 ltr    Meters
  --------------------------------------------------------------------------
  WS02006232              0.01      0.26      0  02:37       0.000     0.000
  WS02006234              0.01      4.98      0  02:11       0.000     0.000
  WS02006235              0.01      9.14      0  02:11       0.000     0.000
  WS02006238              0.01      6.69      0  02:11       0.000     0.000
  WS02006239              0.01      4.18      0  02:11       0.000     0.000
  WS02006240              0.01      5.72      0  02:11       0.000     0.000
  WS02006242              0.01     20.88      0  02:11       0.000     0.000
  WS02006243              0.01      3.27      0  02:11       0.000     0.000
  WS02006245              0.01      2.69      0  02:11       0.000     0.000
  WS02006247              0.01      2.65      0  02:11       0.000     0.000
  WS02006248              0.01     41.64      0  02:37       0.001     0.000
  WS02006249              0.57    117.53      0  02:09       0.127     0.000
  WS02006252              0.01    245.63      0  00:00       0.000     0.000
  WS02006256              0.92    293.19      0  00:00       0.297     0.000
  YS02001580              0.01    122.88      0  02:02       0.000     0.000
  YS02001583              0.01    128.35      0  02:02       0.000     0.000
  YS02001586              0.01     81.20      0  02:02       0.001     0.000
  YS02001590              0.01     92.62      0  02:00       0.000     0.000
  YS02001600              0.01      2.41      0  02:00       0.000     0.000
  YS02001601              0.18    286.94      0  02:03       0.106     0.000
  YS02001602              0.01     23.11      0  02:02       0.000     0.000
  YS02001605              0.01      3.86      0  02:02       0.000     0.000
  YS02001607              0.01     21.63      0  02:02       0.000     0.000
  YS02001610              0.01     32.94      0  02:02       0.000     0.000
  YS02001616              0.01     52.29      0  02:02       0.000     0.000
  YS02001619              0.01     65.05      0  02:02       0.000     0.000
  YS02001622              0.01    186.06      0  02:02       0.000     0.000
  YS02001625              0.01     59.70      0  02:02       0.000     0.000
  YS02001629              0.01    236.20      0  02:02       0.001     0.000
  
  
  **********************
  Storage Volume Summary
  **********************
  
  ------------------------------------------------------------------------------------------------
                         Average    Avg   Evap  Exfil     Maximum    Max    Time of Max    Maximum
                          Volume   Pcnt   Pcnt   Pcnt      Volume   Pcnt     Occurrence    Outflow
  Storage Unit           1000 m³   Full   Loss   Loss     1000 m³   Full    days hr:min        LPS
  ------------------------------------------------------------------------------------------------
  CC-storage               2.116   33.0    0.0    0.0       3.891   60.7       0  02:27    1783.53
  JK-storage               0.159   54.7    0.0    0.0       0.212   72.6       0  02:07    2300.00
  XR-storage               0.945   65.6    0.0    0.0       1.111   77.2       0  08:00     380.00
  
  
  ***********************
  Outfall Loading Summary
  ***********************
  
  -----------------------------------------------------------
                         Flow       Avg       Max       Total
                         Freq      Flow      Flow      Volume
  Outfall Node           Pcnt       LPS       LPS    10^6 ltr
  -----------------------------------------------------------
  CC-1                  32.38    683.00    683.00       3.600
  CC-2                   1.17    683.00    683.00       0.205
  JK-1                   9.32   1000.00   1000.00       0.914
  JK-2                   0.25   1000.00   1000.00       0.048
  WSC                   99.93    362.15    739.51       8.863
  -----------------------------------------------------------
  System                28.61   3728.15   3366.23      13.630
  
  
  ********************
  Link Flow Summary
  ********************
  
  -----------------------------------------------------------------------------
                                 Maximum  Time of Max   Maximum    Max/    Max/
                                  |Flow|   Occurrence   |Veloc|    Full    Full
  Link                 Type          LPS  days hr:min     m/sec    Flow   Depth
  -----------------------------------------------------------------------------
  1                    CONDUIT    739.51     0  02:45      3.06    0.26    0.35
  WS02001211WS02001212 CONDUIT    201.81     0  03:46      0.54    0.15    0.51
  WS02001212WS02001213 CONDUIT    203.79     0  03:47      1.04    0.31    0.35
  WS02001213WS02003059 CONDUIT    208.81     0  03:44      0.47    0.34    0.67
  WS02003059WS02003060 CONDUIT    215.21     0  03:45      0.67    0.14    0.58
  WS02003060WS02003069 CONDUIT    739.41     0  02:43      1.76    0.29    0.40
  WS02003066WSF200     CONDUIT    531.15     0  02:42      2.73    0.09    0.23
  WS02003067WS02003066 CONDUIT    530.92     0  02:42      1.20    0.17    0.41
  WS02003069WS02003072 CONDUIT    739.11     0  02:44      1.50    0.36    0.45
  WS02003072WS02003073 CONDUIT    738.45     0  02:45      1.59    1.59    0.43
  WS02004138WS02004139 CONDUIT    190.84     0  00:29      2.17    0.04    0.33
  WS02004139WS02001211 CONDUIT    192.75     0  02:53      0.54    0.24    0.47
  WS02004401WS02004402 CONDUIT    542.06     0  02:38      0.97    0.65    0.88
  WS02004402WS02004403 CONDUIT    541.74     0  02:38      0.97    0.78    0.91
  WS02004403WS02004404 CONDUIT    547.03     0  02:40      0.92    0.40    0.96
  WS02004404WS02004405 CONDUIT    593.10     0  02:40      1.08    5.81    0.98
  WS02004405WS02004406 CONDUIT    539.32     0  02:40      0.99    1.06    0.96
  WS02004406WS02004407 CONDUIT    535.68     0  02:40      1.04    0.24    0.63
  WS02004407WS02004409 CONDUIT    534.79     0  02:41      1.56    0.19    0.48
  WS02004409WS02004410 CONDUIT    534.13     0  02:41      1.04    0.69    0.67
  WS02004410WS02004411 CONDUIT    532.01     0  02:41      0.99    0.73    0.68
  WS02004411WS02004412 CONDUIT    531.81     0  02:42      0.92    0.76    0.69
  WS02004412WS02004413 CONDUIT    531.41     0  02:42      0.82    0.36    0.77
  WS02004413WS02003067 CONDUIT    530.47     0  02:42      1.10    0.23    0.59
  WS02006109WS02006110 CONDUIT    567.70     0  02:37      1.13    1.09    1.00
  WS02006110WS02006113 CONDUIT    577.72     0  02:37      1.38    0.53    0.79
  WS02006111WS02006112 CONDUIT    555.43     0  02:37      1.82    0.26    0.68
  WS02006112WS02006115 CONDUIT    569.00     0  02:18      0.86    0.34    0.88
  WS02006113WS02006111 CONDUIT    576.90     0  02:37      2.48    0.69    0.47
  WS02006115WS02006116 CONDUIT    548.91     0  02:37      1.07    0.70    0.78
  WS02006116WS02004401 CONDUIT    545.81     0  02:38      0.98    0.75    0.86
  WS02006228WS02006109 CONDUIT    566.12     0  02:37      1.13    2.47    1.00
  WS02006229WS02006228 CONDUIT    564.67     0  02:37      1.15    1.87    1.00
  WS02006230WS02006229 CONDUIT    565.37     0  02:37      1.47   12.58    1.00
  WS02006231WS02006230 CONDUIT    584.09     0  02:11      1.61    8.86    1.00
  WS02006232WS02006231 CONDUIT    581.14     0  03:24      1.52    1.22    1.00
  WS02006234WS02006232 CONDUIT    579.98     0  03:24      1.51    1.17    1.00
  WS02006235WS02006234 CONDUIT    572.99     0  03:24      1.49    6.05    1.00
  WS02006238WS02006235 CONDUIT    432.55     0  02:10      1.57    0.97    1.00
  WS02006239WS02006238 CONDUIT    433.22     0  02:10      1.13    1.39    1.00
  WS02006240WS02006239 CONDUIT    431.27     0  02:10      1.24    1.36    1.00
  WS02006242WS02006240 CONDUIT    425.86     0  02:10      1.12    1.69    1.00
  WS02006243WS02006242 CONDUIT    425.77     0  02:10      1.39    0.91    1.00
  WS02006245WS02006243 CONDUIT    426.47     0  02:10      1.45    1.26    1.00
  WS02006247WS02006245 CONDUIT    427.19     0  02:10      1.44    3.39    1.00
  WS02006248WS02006247 CONDUIT    426.74     0  02:10      1.45    0.93    1.00
  WS02006249WS02006248 CONDUIT    427.19     0  02:10      1.37    2.34    1.00
  WS02006251WS02006249 CONDUIT    458.97     0  00:00      1.99    1.32    1.00
  WS02006252WS02006251 CONDUIT    409.38     0  02:09     25.11    1.50    1.00
  WS02006256WS02006235 CONDUIT    289.23     0  02:01      4.23    3.06    1.00
  WSF200WS02003060     CONDUIT    532.34     0  02:43      1.75    0.12    0.31
  YS02001580YS02001583 CONDUIT    133.79     0  02:02      0.77    0.52    1.00
  YS02001583YS02001586 CONDUIT    159.41     0  02:02      0.75    0.24    1.00
  YS02001586YS02001590 CONDUIT    258.17     0  02:04      1.30    0.45    1.00
  YS02001590YS02001593 CONDUIT    258.18     0  02:04      1.03    1.62    1.00
  YS02001593YS02001596 CONDUIT    258.21     0  02:04      1.69    0.41    1.00
  YS02001596YS02001600 CONDUIT    258.22     0  02:04      1.19    0.50    1.00
  YS02001600YS02001601 CONDUIT    258.22     0  02:04      0.91    0.45    1.00
  YS02001601YS02001602 CONDUIT    552.71     0  02:01      1.95    2.00    1.00
  YS02001602YS02001605 CONDUIT    552.95     0  02:01      1.96   11.70    1.00
  YS02001605YS02001607 CONDUIT    553.19     0  02:01      1.96    3.03    1.00
  YS02001607YS02001610 CONDUIT    545.86     0  02:02      0.70    0.52    1.00
  YS02001610YS02001613 CONDUIT    553.69     0  02:02      0.70    0.64    1.00
  YS02001613YS02001616 CONDUIT    571.79     0  02:02      0.73    0.49    1.00
  YS02001616YS02001619 CONDUIT    533.32     0  02:02      0.68    0.93    1.00
  YS02001619YS02001622 CONDUIT    964.04     0  02:02      1.27    1.42    1.00
  YS02001622YS02001625 CONDUIT    935.38     0  02:02      1.19    0.50    1.00
  YS02001625YS02001629 CONDUIT    935.26     0  02:02      1.20    0.44    1.00
  YS02001629YS02163301 CONDUIT    894.16     0  02:04      1.14    1.10    1.00
  YS02001633YS02163601 CONDUIT   1253.00     0  02:03      1.60    1.32    1.00
  YS02001641YS02001644 CONDUIT   1253.65     0  02:03      1.60    4.05    1.00
  YS02001644YS02001647 CONDUIT   1563.78     0  02:03      2.13    0.92    0.93
  YS02001647YS02001649 CONDUIT   1579.59     0  02:03      2.30    0.83    0.92
  YS02001649YS02001757 CONDUIT   1897.47     0  02:04      2.52    1.15    1.00
  YS02001652YS02001649 CONDUIT    397.84     0  02:04      0.75    0.20    0.91
  YS02001655YS02001652 CONDUIT    363.91     0  02:04      1.46    0.18    0.66
  YS02001658YS02001655 CONDUIT    313.61     0  02:03      1.97    0.13    0.38
  YS02001661YS02001658 CONDUIT    308.43     0  02:02      2.13    0.12    0.24
  YS02001664YS02001661 CONDUIT    307.93     0  02:02      1.92    0.10    0.26
  YS02001745YS02001748 CONDUIT    200.25     0  02:02      1.96    0.08    0.19
  YS02001748YS02001751 CONDUIT    200.34     0  02:02      1.64    0.10    0.30
  YS02001751YS02001754 CONDUIT    214.64     0  02:06      1.55    0.10    0.52
  YS02001754YS02001757 CONDUIT    275.89     0  02:06      0.55    0.11    0.85
  YS02001757CaochengTiaoxuchi CONDUIT   2386.09     0  02:05      3.09    1.03    1.00
  YS02001759YS02001757 CONDUIT    553.73     0  02:05      0.96    0.39    0.98
  YS02001762YS02001759 CONDUIT    365.72     0  02:06      0.58    0.42    0.93
  YS02001765YS02001762 CONDUIT    384.05     0  02:06      0.72    0.36    0.88
  YS02001767YS02001765 CONDUIT    362.91     0  02:06      0.84    0.46    0.84
  YS02001770YS02001767 CONDUIT    376.13     0  02:06      0.88    1.49    0.82
  YS02001774YS02001770 CONDUIT     97.71     0  02:03      0.18    0.06    0.84
  YS02001779YS02001774 CONDUIT     69.18     0  02:07      0.11    0.03    0.76
  YS02001783YS02001784 CONDUIT    947.88     0  02:07      1.89    1.31    1.00
  YS02001784YS02001785 CONDUIT    949.40     0  02:07      1.96    2.21    0.92
  YS02001786YS02001788 CONDUIT    949.37     0  02:07      2.33    1.83    0.76
  YS02001788YS02001790 CONDUIT    949.69     0  02:07      2.46    0.70    0.72
  YS02001790YS02001791 CONDUIT   1023.14     0  02:08      3.13    1.11    0.62
  YS02001791YS02001793 CONDUIT    957.38     0  02:07      6.22    0.41    0.35
  YS02001793JiankangQianchi CONDUIT    957.78     0  02:07      1.97    0.08    0.59
  YS02001882YS02001884 CONDUIT     24.60     0  02:02      0.08    0.03    0.99
  YS02001884YS02001887 CONDUIT     54.83     0  02:02      0.09    0.07    1.00
  YS02001887YS02001890 CONDUIT    271.91     0  02:02      0.36    0.47    1.00
  YS02001890YS02001895 CONDUIT    266.74     0  02:04      0.37    0.12    0.97
  YS02001895YS02001898 CONDUIT    254.01     0  02:05      0.41    0.44    0.94
  YS02001898YS02001901 CONDUIT    229.30     0  02:04      0.36    0.15    0.98
  YS02001901YS02001904 CONDUIT    227.92     0  02:06      0.36    0.35    1.00
  YS02001904YS02001907 CONDUIT    231.68     0  02:12      0.32    0.08    1.00
  YS02001907YS02006553 CONDUIT    667.04     0  02:09      0.74    0.78    1.00
  YS02001910YS02001907 CONDUIT    462.87     0  02:09      0.59    0.26    1.00
  YS02001915YS02001910 CONDUIT    462.68     0  02:09      0.59    0.23    1.00
  YS02001918YS02001915 CONDUIT    214.07     0  02:09      0.44    0.12    0.82
  YS02001920YS02001918 CONDUIT    192.81     0  02:08      0.66    0.19    0.68
  YS02001923YS02001920 CONDUIT    171.73     0  02:06      0.77    0.08    0.59
  YS02001926YS02001923 CONDUIT    160.00     0  02:04      0.92    0.23    0.29
  YS02001929YS02001926 CONDUIT    160.24     0  02:04      1.01    0.08    0.26
  YS02006553YS02006556 CONDUIT    666.82     0  02:09      0.85    0.57    1.00
  YS02006556YS02006558 CONDUIT    667.73     0  02:09      0.85    0.53    1.00
  YS02006558YS02006561 CONDUIT    949.08     0  02:07      3.55    2.10    0.90
  YS02006561YS02001783 CONDUIT    947.71     0  02:07      2.21    0.49    0.80
  YS02163301YS02001633 CONDUIT    894.26     0  02:03      1.14    0.84    1.00
  YS02163601YS02164001 CONDUIT   1253.15     0  02:03      1.60    1.11    1.00
  YS02164001YS02001641 CONDUIT   1253.20     0  02:03      1.60    1.71    1.00
  CC-R1                PUMP       683.00     0  00:00              1.00
  CC-R2                PUMP       683.00     0  00:00              1.00
  CC-S1                PUMP       200.00     0  00:00              1.00
  CC-S2                PUMP       200.00     0  00:00              1.00
  JK-R1                PUMP      1000.00     0  00:00              1.00
  JK-R2                PUMP      1000.00     0  00:00              1.00
  JK-S                 PUMP       300.00     0  00:00              1.00
  XR-1                 PUMP        95.00     0  00:00              1.00
  XR-2                 PUMP        95.00     0  00:00              1.00
  XR-3                 PUMP        95.00     0  00:00              1.00
  XR-4                 PUMP        95.00     0  00:00              1.00
  
  
  ***************************
  Flow Classification Summary
  ***************************
  
  -------------------------------------------------------------------------------------
                      Adjusted    ---------- Fraction of Time in Flow Class ---------- 
                       /Actual         Up    Down  Sub   Sup   Up    Down  Norm  Inlet 
  Conduit               Length    Dry  Dry   Dry   Crit  Crit  Crit  Crit  Ltd   Ctrl  
  -------------------------------------------------------------------------------------
  1                       1.00   0.00  0.00  0.00  0.00  1.00  0.00  0.00  0.19  0.00
  WS02001211WS02001212    1.00   0.00  0.02  0.00  0.98  0.00  0.00  0.00  0.00  0.00
  WS02001212WS02001213    1.00   0.02  0.00  0.00  0.19  0.00  0.79  0.00  0.00  0.00
  WS02001213WS02003059    1.00   0.00  0.01  0.00  0.99  0.00  0.00  0.00  0.00  0.00
  WS02003059WS02003060    1.00   0.00  0.00  0.00  1.00  0.00  0.00  0.00  0.03  0.00
  WS02003060WS02003069    1.00   0.00  0.00  0.00  0.98  0.02  0.00  0.00  0.68  0.00
  WS02003066WSF200        1.00   0.13  0.00  0.00  0.00  0.87  0.00  0.00  0.79  0.00
  WS02003067WS02003066    1.00   0.10  0.02  0.00  0.88  0.00  0.00  0.00  0.00  0.00
  WS02003069WS02003072    1.00   0.00  0.00  0.00  1.00  0.00  0.00  0.00  0.79  0.00
  WS02003072WS02003073    1.00   0.00  0.00  0.00  0.00  0.00  0.00  1.00  0.00  0.00
  WS02004138WS02004139    1.00   0.00  0.00  0.00  0.97  0.01  0.00  0.02  0.98  0.00
  WS02004139WS02001211    1.00   0.00  0.00  0.00  0.99  0.00  0.00  0.00  0.00  0.00
  WS02004401WS02004402    1.00   0.02  0.00  0.00  0.98  0.00  0.00  0.00  0.00  0.00
  WS02004402WS02004403    1.00   0.02  0.00  0.00  0.97  0.00  0.00  0.00  0.00  0.00
  WS02004403WS02004404    1.00   0.00  0.03  0.00  0.97  0.00  0.00  0.00  0.00  0.00
  WS02004404WS02004405    1.00   0.00  0.00  0.00  1.00  0.00  0.00  0.00  0.01  0.00
  WS02004405WS02004406    1.00   0.00  0.00  0.00  1.00  0.00  0.00  0.00  0.00  0.00
  WS02004406WS02004407    1.00   0.00  0.05  0.00  0.95  0.00  0.00  0.00  0.00  0.00
  WS02004407WS02004409    1.00   0.05  0.00  0.00  0.94  0.01  0.00  0.00  0.94  0.00
  WS02004409WS02004410    1.00   0.05  0.00  0.00  0.95  0.00  0.00  0.00  0.03  0.00
  WS02004410WS02004411    1.00   0.05  0.00  0.00  0.95  0.00  0.00  0.00  0.01  0.00
  WS02004411WS02004412    1.00   0.05  0.00  0.00  0.95  0.00  0.00  0.00  0.00  0.00
  WS02004412WS02004413    1.00   0.05  0.00  0.00  0.94  0.00  0.00  0.00  0.01  0.00
  WS02004413WS02003067    1.00   0.06  0.04  0.00  0.00  0.00  0.90  0.00  0.00  0.00
  WS02006109WS02006110    1.00   0.00  0.01  0.00  0.98  0.00  0.01  0.00  0.00  0.00
  WS02006110WS02006113    1.00   0.01  0.01  0.00  0.98  0.00  0.00  0.00  0.00  0.00
  WS02006111WS02006112    1.00   0.02  0.00  0.00  0.98  0.00  0.00  0.00  0.98  0.00
  WS02006112WS02006115    1.00   0.02  0.00  0.00  0.97  0.00  0.00  0.00  0.00  0.00
  WS02006113WS02006111    1.00   0.02  0.00  0.00  0.00  0.98  0.00  0.00  0.09  0.00
  WS02006115WS02006116    1.00   0.02  0.00  0.00  0.97  0.00  0.00  0.01  0.00  0.00
  WS02006116WS02004401    1.00   0.02  0.00  0.00  0.98  0.00  0.00  0.00  0.00  0.00
  WS02006228WS02006109    1.00   0.00  0.00  0.00  1.00  0.00  0.00  0.00  0.00  0.00
  WS02006229WS02006228    1.00   0.00  0.00  0.00  0.99  0.00  0.00  0.01  0.00  0.00
  WS02006230WS02006229    1.00   0.00  0.00  0.00  0.99  0.00  0.00  0.01  0.02  0.00
  WS02006231WS02006230    1.00   0.00  0.00  0.00  0.18  0.00  0.82  0.00  0.00  0.00
  WS02006232WS02006231    1.00   0.00  0.00  0.00  0.99  0.00  0.01  0.00  0.00  0.00
  WS02006234WS02006232    1.00   0.00  0.00  0.00  1.00  0.00  0.00  0.00  0.33  0.00
  WS02006235WS02006234    1.00   0.00  0.00  0.00  0.61  0.00  0.39  0.00  0.00  0.00
  WS02006238WS02006235    1.00   0.00  0.00  0.00  1.00  0.00  0.00  0.00  0.00  0.00
  WS02006239WS02006238    1.00   0.00  0.00  0.00  1.00  0.00  0.00  0.00  0.48  0.00
  WS02006240WS02006239    1.00   0.00  0.00  0.00  0.45  0.00  0.00  0.55  0.02  0.00
  WS02006242WS02006240    1.00   0.00  0.00  0.00  1.00  0.00  0.00  0.00  0.00  0.00
  WS02006243WS02006242    1.00   0.00  0.00  0.00  0.99  0.00  0.00  0.01  0.74  0.00
  WS02006245WS02006243    1.00   0.00  0.00  0.00  0.47  0.00  0.00  0.53  0.02  0.00
  WS02006247WS02006245    1.00   0.00  0.00  0.00  0.99  0.00  0.00  0.01  0.00  0.00
  WS02006248WS02006247    1.00   0.00  0.00  0.00  0.99  0.00  0.00  0.01  0.27  0.00
  WS02006249WS02006248    1.00   0.00  0.00  0.00  0.29  0.00  0.71  0.00  0.00  0.00
  WS02006251WS02006249    1.00   0.00  0.00  0.00  0.99  0.01  0.00  0.00  0.75  0.00
  WS02006252WS02006251    1.00   0.00  0.33  0.00  0.08  0.00  0.60  0.00  0.01  0.00
  WS02006256WS02006235    1.00   0.00  0.00  0.00  0.99  0.01  0.00  0.00  0.00  0.00
  WSF200WS02003060        1.00   0.00  0.13  0.00  0.70  0.17  0.00  0.00  0.69  0.00
  YS02001580YS02001583    1.00   0.25  0.62  0.00  0.13  0.00  0.00  0.00  0.71  0.00
  YS02001583YS02001586    1.00   0.52  0.30  0.00  0.18  0.00  0.00  0.00  0.71  0.00
  YS02001586YS02001590    1.00   0.13  0.00  0.00  0.33  0.05  0.00  0.50  0.33  0.00
  YS02001590YS02001593    1.00   0.13  0.01  0.00  0.05  0.00  0.81  0.00  0.00  0.00
  YS02001593YS02001596    1.00   0.14  0.00  0.00  0.06  0.01  0.00  0.79  0.01  0.00
  YS02001596YS02001600    1.00   0.14  0.00  0.00  0.11  0.02  0.00  0.73  0.05  0.00
  YS02001600YS02001601    1.00   0.13  0.01  0.00  0.86  0.00  0.00  0.00  0.67  0.00
  YS02001601YS02001602    1.00   0.13  0.02  0.00  0.86  0.00  0.00  0.00  0.00  0.00
  YS02001602YS02001605    1.00   0.14  0.00  0.00  0.86  0.00  0.00  0.00  0.00  0.00
  YS02001605YS02001607    1.00   0.14  0.00  0.00  0.86  0.00  0.00  0.00  0.00  0.00
  YS02001607YS02001610    1.00   0.13  0.01  0.00  0.85  0.00  0.00  0.00  0.03  0.00
  YS02001610YS02001613    1.00   0.13  0.00  0.00  0.87  0.00  0.00  0.00  0.02  0.00
  YS02001613YS02001616    1.00   0.13  0.00  0.00  0.87  0.00  0.00  0.00  0.01  0.00
  YS02001616YS02001619    1.00   0.13  0.00  0.00  0.87  0.00  0.00  0.00  0.00  0.00
  YS02001619YS02001622    1.00   0.13  0.00  0.00  0.87  0.00  0.00  0.00  0.37  0.00
  YS02001622YS02001625    1.00   0.13  0.00  0.00  0.87  0.00  0.00  0.00  0.07  0.00
  YS02001625YS02001629    1.00   0.13  0.07  0.00  0.08  0.00  0.72  0.00  0.00  0.00
  YS02001629YS02163301    1.00   0.17  0.01  0.00  0.81  0.00  0.00  0.00  0.00  0.00
  YS02001633YS02163601    1.00   0.00  0.01  0.00  0.99  0.00  0.00  0.00  0.16  0.00
  YS02001641YS02001644    1.00   0.00  0.01  0.00  0.99  0.00  0.00  0.00  0.00  0.00
  YS02001644YS02001647    1.00   0.00  0.20  0.00  0.80  0.00  0.00  0.00  0.00  0.00
  YS02001647YS02001649    1.00   0.00  0.20  0.00  0.57  0.23  0.00  0.00  0.61  0.00
  YS02001649YS02001757    1.00   0.00  0.00  0.00  0.75  0.25  0.00  0.00  0.57  0.00
  YS02001652YS02001649    1.00   0.00  0.00  0.00  0.96  0.04  0.00  0.00  0.82  0.00
  YS02001655YS02001652    1.00   0.00  0.00  0.00  0.11  0.01  0.00  0.88  0.06  0.00
  YS02001658YS02001655    1.00   0.00  0.15  0.00  0.61  0.24  0.00  0.00  0.79  0.00
  YS02001661YS02001658    1.00   0.15  0.00  0.00  0.46  0.39  0.00  0.00  0.76  0.00
  YS02001664YS02001661    1.00   0.13  0.00  0.00  0.79  0.08  0.00  0.00  0.87  0.00
  YS02001745YS02001748    1.00   0.00  0.00  0.00  0.00  0.00  0.00  1.00  0.00  0.00
  YS02001748YS02001751    1.00   0.00  0.00  0.00  0.81  0.19  0.00  0.00  0.86  0.00
  YS02001751YS02001754    1.00   0.00  0.00  0.00  0.10  0.00  0.00  0.90  0.05  0.00
  YS02001754YS02001757    1.00   0.00  0.00  0.00  1.00  0.00  0.00  0.00  0.89  0.00
  YS02001757CaochengTiaoxuchi    1.00   0.00  0.00  0.00  1.00  0.00  0.00  0.00  0.86  0.00
  YS02001759YS02001757    1.00   0.00  0.00  0.00  1.00  0.00  0.00  0.00  0.66  0.00
  YS02001762YS02001759    1.00   0.00  0.00  0.00  1.00  0.00  0.00  0.00  0.06  0.00
  YS02001765YS02001762    1.00   0.00  0.00  0.00  1.00  0.00  0.00  0.00  0.80  0.00
  YS02001767YS02001765    1.00   0.00  0.00  0.00  1.00  0.00  0.00  0.00  0.00  0.00
  YS02001770YS02001767    1.00   0.00  0.00  0.00  1.00  0.00  0.00  0.00  0.00  0.00
  YS02001774YS02001770    1.00   0.00  0.14  0.00  0.58  0.00  0.28  0.00  0.05  0.00
  YS02001779YS02001774    1.00   0.00  0.00  0.00  1.00  0.00  0.00  0.00  0.85  0.00
  YS02001783YS02001784    1.00   0.00  0.21  0.00  0.79  0.00  0.00  0.00  0.59  0.00
  YS02001784YS02001785    1.00   0.00  0.00  0.00  1.00  0.00  0.00  0.00  0.20  0.00
  YS02001786YS02001788    1.00   0.00  0.00  0.00  0.81  0.19  0.00  0.00  0.00  0.00
  YS02001788YS02001790    1.00   0.00  0.00  0.00  0.22  0.78  0.00  0.00  0.89  0.00
  YS02001790YS02001791    1.00   0.00  0.00  0.00  0.01  0.99  0.00  0.00  0.14  0.00
  YS02001791YS02001793    1.00   0.00  0.00  0.00  0.00  1.00  0.00  0.00  0.00  0.00
  YS02001793JiankangQianchi    1.00   0.00  0.00  0.00  1.00  0.00  0.00  0.00  1.00  0.00
  YS02001882YS02001884    1.00   0.17  0.02  0.00  0.82  0.00  0.00  0.00  0.00  0.00
  YS02001884YS02001887    1.00   0.06  0.05  0.00  0.89  0.00  0.00  0.00  0.00  0.00
  YS02001887YS02001890    1.00   0.00  0.00  0.00  0.97  0.00  0.03  0.00  0.00  0.00
  YS02001890YS02001895    1.00   0.00  0.19  0.00  0.81  0.00  0.00  0.00  0.00  0.00
  YS02001895YS02001898    1.00   0.19  0.00  0.00  0.79  0.00  0.02  0.00  0.00  0.00
  YS02001898YS02001901    1.00   0.19  0.01  0.00  0.81  0.00  0.00  0.00  0.01  0.00
  YS02001901YS02001904    1.00   0.19  0.00  0.00  0.81  0.00  0.00  0.00  0.00  0.00
  YS02001904YS02001907    1.00   0.00  0.18  0.00  0.81  0.00  0.00  0.00  0.00  0.00
  YS02001907YS02006553    1.00   0.00  0.02  0.00  0.98  0.00  0.00  0.00  0.00  0.00
  YS02001910YS02001907    1.00   0.00  0.00  0.00  0.97  0.00  0.00  0.03  0.12  0.00
  YS02001915YS02001910    1.00   0.00  0.00  0.00  0.97  0.03  0.00  0.00  0.19  0.00
  YS02001918YS02001915    1.00   0.00  0.01  0.00  0.98  0.02  0.00  0.00  0.81  0.00
  YS02001920YS02001918    1.00   0.00  0.01  0.00  0.99  0.00  0.00  0.00  0.00  0.00
  YS02001923YS02001920    1.00   0.00  0.00  0.00  1.00  0.00  0.00  0.00  0.97  0.00
  YS02001926YS02001923    1.00   0.00  0.07  0.00  0.01  0.00  0.92  0.00  0.00  0.00
  YS02001929YS02001926    1.00   0.00  0.13  0.00  0.87  0.00  0.00  0.00  0.87  0.00
  YS02006553YS02006556    1.00   0.01  0.00  0.00  0.99  0.00  0.00  0.00  0.03  0.00
  YS02006556YS02006558    1.00   0.00  0.00  0.00  1.00  0.00  0.00  0.00  0.00  0.00
  YS02006558YS02006561    1.00   0.21  0.00  0.00  0.00  0.79  0.00  0.00  0.18  0.00
  YS02006561YS02001783    1.00   0.21  0.00  0.00  0.03  0.76  0.00  0.00  0.73  0.00
  YS02163301YS02001633    1.00   0.00  0.17  0.00  0.83  0.00  0.00  0.00  0.00  0.00
  YS02163601YS02164001    1.00   0.00  0.08  0.00  0.92  0.00  0.00  0.00  0.00  0.00
  YS02164001YS02001641    1.00   0.01  0.07  0.00  0.92  0.00  0.00  0.00  0.06  0.00
  
  
  *************************
  Conduit Surcharge Summary
  *************************
  
  ----------------------------------------------------------------------------
                                                           Hours        Hours 
                         --------- Hours Full --------   Above Full   Capacity
  Conduit                Both Ends  Upstream  Dnstream   Normal Flow   Limited
  ----------------------------------------------------------------------------
  WS02003072WS02003073        0.01      0.01      0.01      1.49         0.01
  WS02004403WS02004404        0.01      0.01      0.01      0.01         0.01
  WS02004404WS02004405        0.01      0.01      0.01      1.79         0.01
  WS02004405WS02004406        0.01      0.01      0.01      0.28         0.01
  WS02006109WS02006110        0.33      0.33      1.40      0.49         0.01
  WS02006110WS02006113        0.01      0.01      1.40      0.01         0.01
  WS02006111WS02006112        0.01      0.01      1.47      0.01         0.01
  WS02006112WS02006115        0.01      0.01      0.51      0.01         0.01
  WS02006228WS02006109        1.38      1.40      1.38      1.50         1.38
  WS02006229WS02006228        1.38      1.38      1.38      1.45         1.36
  WS02006230WS02006229        1.42      1.44      1.42      2.52         1.42
  WS02006231WS02006230        0.35      0.35      0.59      2.10         0.01
  WS02006232WS02006231        0.51      0.51      1.40      0.62         0.01
  WS02006234WS02006232        1.31      1.31      1.40      0.59         0.59
  WS02006235WS02006234        1.04      1.04      1.32      1.93         0.03
  WS02006238WS02006235        1.35      1.35      1.40      0.01         0.01
  WS02006239WS02006238        1.38      1.40      1.38      1.40         1.20
  WS02006240WS02006239        1.35      1.38      1.35      1.40         1.14
  WS02006242WS02006240        1.38      1.38      1.40      1.48         0.01
  WS02006243WS02006242        1.38      1.38      1.39      0.01         0.07
  WS02006245WS02006243        1.37      1.37      1.37      1.05         0.95
  WS02006247WS02006245        1.37      1.37      1.37      1.59         1.35
  WS02006248WS02006247        1.37      1.37      1.37      0.01         0.07
  WS02006249WS02006248        1.36      1.36      1.36      1.58         0.01
  WS02006251WS02006249        1.36      1.36      1.36      1.46         1.24
  WS02006252WS02006251        1.55      1.55      1.55      1.55         0.01
  WS02006256WS02006235        1.92      1.98      4.09      0.93         0.01
  YS02001580YS02001583        0.07      0.07      0.13      0.01         0.01
  YS02001583YS02001586        0.09      0.09      0.24      0.01         0.01
  YS02001586YS02001590        0.25      0.25      0.30      0.01         0.01
  YS02001590YS02001593        0.31      0.31      0.32      0.32         0.01
  YS02001593YS02001596        0.31      0.31      0.38      0.01         0.01
  YS02001596YS02001600        0.41      0.41      0.48      0.01         0.01
  YS02001600YS02001601        0.52      0.52      0.75      0.01         0.01
  YS02001601YS02001602        0.65      0.65      0.79      0.49         0.01
  YS02001602YS02001605        0.61      0.61      0.65      1.60         0.01
  YS02001605YS02001607        0.58      0.61      0.58      0.71         0.58
  YS02001607YS02001610        0.25      0.25      0.27      0.01         0.01
  YS02001610YS02001613        0.25      0.25      0.27      0.01         0.01
  YS02001613YS02001616        0.21      0.21      0.25      0.01         0.01
  YS02001616YS02001619        0.20      0.20      0.21      0.01         0.01
  YS02001619YS02001622        0.20      0.20      0.20      0.32         0.20
  YS02001622YS02001625        0.20      0.20      0.34      0.01         0.01
  YS02001625YS02001629        0.12      0.12      0.34      0.01         0.01
  YS02001629YS02163301        0.33      0.33      0.34      0.21         0.19
  YS02001633YS02163601        0.36      0.36      0.38      0.25         0.25
  YS02001641YS02001644        0.25      0.29      0.25      0.84         0.25
  YS02001644YS02001647        0.01      0.01      0.25      0.01         0.01
  YS02001647YS02001649        0.01      0.01      0.02      0.01         0.01
  YS02001649YS02001757        0.02      0.02      0.09      0.08         0.01
  YS02001652YS02001649        0.01      0.01      0.02      0.01         0.01
  YS02001754YS02001757        0.01      0.01      0.09      0.01         0.01
  YS02001757CaochengTiaoxuchi        0.09      0.09      1.00      0.04         0.01
  YS02001759YS02001757        0.01      0.01      0.09      0.01         0.01
  YS02001770YS02001767        0.01      0.01      0.01      0.14         0.01
  YS02001783YS02001784        0.09      0.13      0.09      0.26         0.09
  YS02001784YS02001785        0.01      0.09      0.01      0.40         0.01
  YS02001786YS02001788        0.01      0.01      0.01      0.33         0.01
  YS02001790YS02001791        0.01      0.01      0.01      0.07         0.01
  YS02001793JiankangQianchi        0.01      0.01      7.70      0.01         0.01
  YS02001882YS02001884        0.01      0.01      0.03      0.01         0.01
  YS02001884YS02001887        0.10      0.10      0.12      0.01         0.01
  YS02001887YS02001890        0.13      0.13      0.15      0.01         0.01
  YS02001890YS02001895        0.01      0.01      0.17      0.01         0.01
  YS02001898YS02001901        0.01      0.01      0.09      0.01         0.01
  YS02001901YS02001904        0.08      0.08      0.09      0.01         0.01
  YS02001904YS02001907        0.08      0.08      0.32      0.01         0.01
  YS02001907YS02006553        0.41      0.41      0.46      0.01         0.01
  YS02001910YS02001907        0.16      0.16      0.30      0.01         0.01
  YS02001915YS02001910        0.01      0.01      0.16      0.01         0.01
  YS02006553YS02006556        0.24      0.24      0.32      0.01         0.01
  YS02006556YS02006558        0.28      0.28      0.32      0.01         0.01
  YS02006558YS02006561        0.01      0.23      0.01      0.38         0.01
  YS02006561YS02001783        0.01      0.01      0.13      0.01         0.01
  YS02163301YS02001633        0.34      0.34      0.37      0.01         0.01
  YS02163601YS02164001        0.30      0.30      0.38      0.12         0.01
  YS02164001YS02001641        0.29      0.30      0.29      0.41         0.28
  
  
  ***************
  Pumping Summary
  ***************
  
  ---------------------------------------------------------------------------------------------------------
                                                  Min       Avg       Max     Total     Power    % Time Off
                        Percent   Number of      Flow      Flow      Flow    Volume     Usage    Pump Curve
  Pump                 Utilized   Start-Ups       LPS       LPS       LPS  10^6 ltr     Kw-hr    Low   High
  ---------------------------------------------------------------------------------------------------------
  CC-R1                   18.29          13      0.00    683.00    683.00     3.597     64.33    0.0   37.7
  CC-R2                    1.04           1      0.00    683.00    683.00     0.205      3.46    0.0  100.0
  CC-S1                   20.54          13      0.00    200.00    200.00     1.183      7.37    0.0    0.0
  CC-S2                   19.36          13      0.00    200.00    200.00     1.115      6.96    0.0    0.0
  JK-R1                    3.17           7      0.00   1000.00   1000.00     0.912     10.35    0.0    0.0
  JK-R2                    0.16           1      0.00   1000.00   1000.00     0.047      0.36    0.0    0.0
  JK-S                    11.53          23      0.00    300.00    300.00     0.996     13.03    0.0    0.0
  XR-1                    97.91           2      0.00     95.00     95.00     2.679      9.60    0.0    0.0
  XR-2                    93.94           2      0.00     95.00     95.00     2.570      8.76    0.0    0.0
  XR-3                     0.00           1      0.00     95.00     95.00     0.000      0.00    0.0    0.0
  XR-4                     0.00           1      0.00     95.00     95.00     0.000      0.00    0.0    0.0
  

  Analysis begun on:  Wed Nov  5 16:31:35 2025
  Analysis ended on:  Wed Nov  5 16:31:38 2025
  Total elapsed time: 00:00:03