
  EPA STORM WATER MANAGEMENT MODEL - VERSION 5.2 (Build 5.2.4)
  PYSWMM TOOLKIT API - VERSION v1.0 (2023-11-27)
  ------------------------------------------------------------

  WARNING 04: minimum elevation drop used for Conduit WS02004404WS02004405
  WARNING 03: negative offset ignored for Link YS02001904YS02001907
  
  ****************
  Analysis Options
  ****************
  Flow Units ............... LPS
  Process Models:
    Rainfall/Runoff ........ YES
    RDII ................... NO
    Snowmelt ............... NO
    Groundwater ............ NO
    Flow Routing ........... YES
    Ponding Allowed ........ NO
    Water Quality .......... NO
  Infiltration Method ...... HORTON
  Flow Routing Method ...... DYNWAVE
  Surcharge Method ......... EXTRAN
  Starting Date ............ 08/28/2015 08:00:00
  Ending Date .............. 08/28/2015 16:00:00
  Antecedent Dry Days ...... 8.0
  Report Time Step ......... 00:01:00
  Wet Time Step ............ 00:01:00
  Dry Time Step ............ 00:01:00
  Routing Time Step ........ 30.00 sec
  Variable Time Step ....... YES
  Maximum Trials ........... 8
  Number of Threads ........ 4
  Head Tolerance ........... 0.001500 m
  
  
  **************************        Volume         Depth
  Runoff Quantity Continuity     hectare-m            mm
  **************************     ---------       -------
  Initial LID Storage ......         0.049         1.488
  Total Precipitation ......         1.492        44.977
  Evaporation Loss .........         0.000         0.000
  Infiltration Loss ........         0.073         2.209
  Surface Runoff ...........         1.079        32.523
  Final Storage ............         0.390        11.754
  Continuity Error (%) .....        -0.046
  
  
  **************************        Volume        Volume
  Flow Routing Continuity        hectare-m      10^6 ltr
  **************************     ---------     ---------
  Dry Weather Inflow .......         0.602         6.020
  Wet Weather Inflow .......         1.078        10.780
  Groundwater Inflow .......         0.000         0.000
  RDII Inflow ..............         0.000         0.000
  External Inflow ..........         0.105         1.045
  External Outflow .........         1.643        16.432
  Flooding Loss ............         0.116         1.156
  Evaporation Loss .........         0.000         0.000
  Exfiltration Loss ........         0.000         0.000
  Initial Stored Volume ....         0.303         3.031
  Final Stored Volume ......         0.334         3.340
  Continuity Error (%) .....        -0.249
  
  
  *************************
  Highest Continuity Errors
  *************************
  Node YS02001583 (-12.26%)
  Node YS02001884 (4.95%)
  Node YS02001774 (1.44%)
  Node WS02006249 (1.11%)
  
  
  ***************************
  Time-Step Critical Elements
  ***************************
  Link WS02004404WS02004405 (45.00%)
  Link WS02006238WS02006235 (24.95%)
  Link WS02006252WS02006251 (5.24%)
  Link YS02001791YS02001793 (5.11%)
  Link WS02003066WSF200 (4.35%)
  
  
  ********************************
  Highest Flow Instability Indexes
  ********************************
  Link WS02006113WS02006111 (28)
  Link WS02004404WS02004405 (22)
  Link WS02004403WS02004404 (20)
  Link WS02004405WS02004406 (18)
  Link WS02006238WS02006235 (17)
  
  
  *********************************
  Most Frequent Nonconverging Nodes
  *********************************
  Node CC-1 (12.88%)
  Node CC-2 (12.88%)
  Node JK-1 (12.88%)
  Node JK-2 (12.88%)
  Node WSC (12.88%)
  
  
  *************************
  Routing Time Step Summary
  *************************
  Minimum Time Step           :     0.02 sec
  Average Time Step           :     3.60 sec
  Maximum Time Step           :     7.04 sec
  % of Time in Steady State   :     0.00
  Average Iterations per Step :     3.22
  % of Steps Not Converging   :    12.88
  Time Step Frequencies       :
     30.000 - 13.228 sec      :     0.00 %
     13.228 -  5.833 sec      :    28.25 %
      5.833 -  2.572 sec      :    29.74 %
      2.572 -  1.134 sec      :    30.68 %
      1.134 -  0.500 sec      :    11.32 %
  
  
  ***************************
  Subcatchment Runoff Summary
  ***************************
  
  ------------------------------------------------------------------------------------------------------------------------------
                            Total      Total      Total      Total     Imperv       Perv      Total       Total     Peak  Runoff
                           Precip      Runon       Evap      Infil     Runoff     Runoff     Runoff      Runoff   Runoff   Coeff
  Subcatchment                 mm         mm         mm         mm         mm         mm         mm    10^6 ltr      LPS
  ------------------------------------------------------------------------------------------------------------------------------
  sub60                     44.98       0.00       0.00       1.35      29.62       2.82      32.44        0.43   245.03   0.721
  sub61                     44.98       0.00       0.00       2.07      29.59       4.19      33.78        0.62   350.77   0.751
  sub62                     44.98       0.00       0.00       0.92      31.54       1.91      33.46        0.92   484.55   0.744
  sub63                     44.98       0.00       0.00       3.74      25.35       6.94      32.29        0.73   377.22   0.718
  sub64                     44.98       0.00       0.00       1.80      28.85       3.46      32.31        0.78   381.46   0.718
  sub65                     44.98       0.00       0.00       1.65      31.14       3.15      34.29        0.94   443.65   0.762
  sub66                     44.98       0.00       0.00       4.27      24.49       6.07      30.57        1.43   546.16   0.680
  sub67                     44.98       0.00       0.00       0.92      32.35       1.98      34.33        0.64   387.76   0.763
  sub68                     44.98       0.00       0.00       1.58      28.56       3.21      31.78        0.87   478.05   0.707
  sub69                     44.98       0.00       0.00       1.42      30.22       3.93      34.15        1.26   587.43   0.759
  sub70                     44.98       0.00       0.00       4.61      24.20       7.91      32.11        0.93   321.06   0.714
  sub71                     44.98       0.00       0.00       0.84      28.65       1.73      30.38        0.79   392.74   0.675
  sub72                     44.98       0.00       0.00       0.80      30.94       1.60      32.54        0.45   198.05   0.724
  

  ***********************
  LID Performance Summary
  ***********************

  --------------------------------------------------------------------------------------------------------------------
                                         Total      Evap     Infil   Surface    Drain    Initial     Final  Continuity
                                        Inflow      Loss      Loss   Outflow   Outflow   Storage   Storage       Error
  Subcatchment      LID Control             mm        mm        mm        mm        mm        mm        mm           %
  --------------------------------------------------------------------------------------------------------------------
  sub60             GreenRoof            44.98      0.00      0.00      0.00      0.00      7.05     52.09       -0.12
  sub61             GreenRoof            44.98      0.00      0.00      0.00      0.00      7.05     52.09       -0.12
  sub62             GreenRoof            44.98      0.00      0.00      0.00      0.00      7.05     52.09       -0.12
  sub63             GreenRoof            44.98      0.00      0.00      0.00      0.00      7.05     52.09       -0.12
  sub64             GreenRoof            44.98      0.00      0.00      0.00      0.00      7.05     52.09       -0.12
  sub65             GreenRoof            44.98      0.00      0.00      0.00      0.00      7.05     52.09       -0.12
  sub66             GreenRoof            44.98      0.00      0.00      0.00      0.00      7.05     52.09       -0.12
  sub67             GreenRoof            44.98      0.00      0.00      0.00      0.00      7.05     52.09       -0.12
  sub68             GreenRoof            44.98      0.00      0.00      0.00      0.00      7.05     52.09       -0.12
  sub69             GreenRoof            44.98      0.00      0.00      0.00      0.00      7.05     52.09       -0.12
  sub70             GreenRoof            44.98      0.00      0.00      0.00      0.00      7.05     52.09       -0.12
  sub71             GreenRoof            44.98      0.00      0.00      0.00      0.00      7.05     52.09       -0.12
  sub72             GreenRoof            44.98      0.00      0.00      0.00      0.00      7.05     52.09       -0.12
  
  ******************
  Node Depth Summary
  ******************
  
  ---------------------------------------------------------------------------------
                                 Average  Maximum  Maximum  Time of Max    Reported
                                   Depth    Depth      HGL   Occurrence   Max Depth
  Node                 Type       Meters   Meters   Meters  days hr:min      Meters
  ---------------------------------------------------------------------------------
  WS02001211           JUNCTION     0.60     0.64     5.48     0  02:33        0.64
  WS02001212           JUNCTION     0.33     0.38     5.45     0  02:35        0.38
  WS02001213           JUNCTION     0.53     0.65     5.41     0  02:32        0.65
  WS02003059           JUNCTION     0.59     0.72     5.40     0  02:41        0.72
  WS02003060           JUNCTION     0.30     0.45     5.39     0  02:36        0.45
  WS02003066           JUNCTION     0.16     0.30     5.85     0  02:36        0.30
  WS02003067           JUNCTION     0.43     0.70     6.02     0  02:35        0.70
  WS02003069           JUNCTION     0.33     0.51     5.10     0  02:37        0.51
  WS02003072           JUNCTION     0.40     0.58     4.95     0  02:35        0.58
  WS02003073           JUNCTION     0.23     0.35     4.41     0  02:33        0.35
  WS02004138           JUNCTION     0.13     0.14     7.39     0  00:29        0.14
  WS02004139           JUNCTION     0.54     0.58     5.49     0  02:34        0.58
  WS02004401           JUNCTION     0.52     0.88     6.88     0  02:28        0.88
  WS02004402           JUNCTION     0.55     0.91     6.87     0  02:06        0.91
  WS02004403           JUNCTION     0.57     0.92     6.85     0  02:09        0.92
  WS02004404           JUNCTION     0.65     1.04     6.89     0  02:04        1.01
  WS02004405           JUNCTION     0.64     0.97     6.82     0  02:12        0.97
  WS02004406           JUNCTION     0.65     0.96     6.79     0  02:28        0.96
  WS02004407           JUNCTION     0.13     0.30     6.61     0  02:28        0.30
  WS02004409           JUNCTION     0.30     0.67     6.44     0  02:34        0.67
  WS02004410           JUNCTION     0.33     0.68     6.40     0  02:29        0.68
  WS02004411           JUNCTION     0.36     0.69     6.37     0  02:35        0.69
  WS02004412           JUNCTION     0.38     0.70     6.34     0  02:30        0.70
  WS02004413           JUNCTION     0.53     0.86     6.33     0  02:35        0.86
  WS02006109           JUNCTION     0.57     1.05     7.67     0  01:48        0.97
  WS02006110           JUNCTION     0.57     1.05     7.63     0  02:41        0.94
  WS02006111           JUNCTION     0.14     0.29     6.99     0  02:08        0.29
  WS02006112           JUNCTION     0.66     1.09     6.98     0  02:03        1.07
  WS02006113           JUNCTION     0.21     0.46     7.35     0  02:43        0.46
  WS02006115           JUNCTION     0.40     0.78     6.92     0  02:03        0.77
  WS02006116           JUNCTION     0.49     0.86     6.90     0  02:09        0.86
  WS02006228           JUNCTION     0.56     1.08     7.73     0  01:48        1.01
  WS02006229           JUNCTION     0.53     1.10     7.79     0  01:48        1.02
  WS02006230           JUNCTION     0.52     1.23     7.97     0  02:40        1.14
  WS02006231           JUNCTION     0.34     1.11     8.24     0  02:45        0.89
  WS02006232           JUNCTION     0.47     1.28     8.32     0  02:45        1.10
  WS02006234           JUNCTION     0.39     1.28     8.44     0  02:45        1.13
  WS02006235           JUNCTION     0.44     1.43     8.60     0  02:45        1.23
  WS02006238           JUNCTION     0.46     1.48     8.62     0  02:45        1.26
  WS02006239           JUNCTION     0.42     1.44     8.65     0  02:45        1.26
  WS02006240           JUNCTION     0.39     1.41     8.70     0  02:45        1.22
  WS02006242           JUNCTION     0.44     1.45     8.72     0  02:45        1.29
  WS02006243           JUNCTION     0.37     1.32     8.74     0  01:46        1.18
  WS02006245           JUNCTION     0.37     1.25     8.73     0  02:45        1.15
  WS02006247           JUNCTION     0.38     1.23     8.73     0  01:46        1.16
  WS02006248           JUNCTION     0.35     1.10     8.69     0  01:46        1.09
  WS02006249           JUNCTION     0.38     1.09     8.69     0  01:46        1.09
  WS02006251           JUNCTION     0.37     1.41     9.08     0  01:47        1.12
  WS02006252           JUNCTION     0.25     1.50     9.74     0  00:00        0.68
  WS02006256           JUNCTION     1.06     2.35     9.28     0  00:00        2.35
  WSF200               JUNCTION     0.13     0.31     5.54     0  02:36        0.31
  YS02001580           JUNCTION     0.10     1.05     9.59     0  01:38        0.77
  YS02001583           JUNCTION     0.13     1.14     9.64     0  01:38        0.81
  YS02001586           JUNCTION     0.22     1.13     9.30     0  01:38        1.13
  YS02001590           JUNCTION     0.32     1.40     9.26     0  01:38        1.36
  YS02001593           JUNCTION     0.25     1.36     9.22     0  01:38        1.28
  YS02001596           JUNCTION     0.35     1.70     9.12     0  01:38        1.65
  YS02001600           JUNCTION     0.43     1.87     9.00     0  01:37        1.87
  YS02001601           JUNCTION     0.62     2.06     8.90     0  01:37        2.06
  YS02001602           JUNCTION     0.53     1.87     8.77     0  01:38        1.87
  YS02001605           JUNCTION     0.49     1.78     8.68     0  01:38        1.77
  YS02001607           JUNCTION     0.46     1.65     8.50     0  01:49        1.65
  YS02001610           JUNCTION     0.51     1.68     8.48     0  01:38        1.68
  YS02001613           JUNCTION     0.46     1.70     8.54     0  01:38        1.69
  YS02001616           JUNCTION     0.40     1.61     8.52     0  01:38        1.61
  YS02001619           JUNCTION     0.37     1.61     8.54     0  01:38        1.61
  YS02001622           JUNCTION     0.36     1.59     8.50     0  01:49        1.59
  YS02001625           JUNCTION     0.62     1.78     8.38     0  01:38        1.78
  YS02001629           JUNCTION     0.49     1.85     8.40     0  01:38        1.85
  YS02001633           JUNCTION     0.56     2.01     8.46     0  01:49        2.01
  YS02001641           JUNCTION     0.53     1.85     8.28     0  01:49        1.85
  YS02001644           JUNCTION     0.51     1.74     8.18     0  01:49        1.74
  YS02001647           JUNCTION     0.29     1.39     8.00     0  01:49        1.39
  YS02001649           JUNCTION     0.33     1.48     7.87     0  01:42        1.39
  YS02001652           JUNCTION     0.22     1.60     8.20     0  01:42        1.18
  YS02001655           JUNCTION     0.15     0.97     7.82     0  01:46        0.96
  YS02001658           JUNCTION     0.10     0.65     7.79     0  01:45        0.63
  YS02001661           JUNCTION     0.13     0.33     7.74     0  01:42        0.33
  YS02001664           JUNCTION     0.06     0.23     8.16     0  01:40        0.23
  YS02001745           JUNCTION     0.05     0.21     7.72     0  01:39        0.21
  YS02001748           JUNCTION     0.08     0.55     7.62     0  01:44        0.53
  YS02001751           JUNCTION     0.12     0.77     7.65     0  01:44        0.76
  YS02001754           JUNCTION     0.18     1.15     7.76     0  01:45        1.03
  YS02001757           JUNCTION     0.34     1.42     7.68     0  01:45        1.35
  YS02001759           JUNCTION     0.28     1.32     7.68     0  01:45        1.27
  YS02001762           JUNCTION     0.27     1.30     7.70     0  01:44        1.23
  YS02001765           JUNCTION     0.25     1.43     7.88     0  01:41        1.18
  YS02001767           JUNCTION     0.25     1.28     7.77     0  01:44        1.16
  YS02001770           JUNCTION     0.26     1.33     7.82     0  01:44        1.18
  YS02001774           JUNCTION     0.32     1.41     7.84     0  01:44        1.27
  YS02001779           JUNCTION     0.16     1.16     7.85     0  01:44        1.01
  YS02001783           JUNCTION     0.26     1.24     7.38     0  01:42        1.18
  YS02001784           JUNCTION     0.28     1.12     7.18     0  01:42        1.09
  YS02001786           JUNCTION     0.23     0.89     6.92     0  01:42        0.85
  YS02001788           JUNCTION     0.17     0.62     6.59     0  01:43        0.61
  YS02001790           JUNCTION     0.20     0.71     6.36     0  01:44        0.70
  YS02001791           JUNCTION     0.13     0.43     5.90     0  01:44        0.42
  YS02001793           JUNCTION     0.07     0.28     5.11     0  01:46        0.26
  YS02001882           JUNCTION     0.32     1.83     8.55     0  01:40        1.83
  YS02001884           JUNCTION     0.40     1.93     8.55     0  01:40        1.93
  YS02001887           JUNCTION     0.48     2.00     8.54     0  01:40        2.00
  YS02001890           JUNCTION     0.51     1.81     8.32     0  01:40        1.81
  YS02001895           JUNCTION     0.29     1.75     8.50     0  01:42        1.75
  YS02001898           JUNCTION     0.30     1.77     8.51     0  01:42        1.77
  YS02001901           JUNCTION     0.41     1.87     8.48     0  01:42        1.87
  YS02001904           JUNCTION     0.39     1.75     8.38     0  01:42        1.75
  YS02001907           JUNCTION     0.70     1.96     8.25     0  01:41        1.96
  YS02001910           JUNCTION     0.50     2.10     8.61     0  01:40        1.79
  YS02001915           JUNCTION     0.32     2.00     8.72     0  01:40        1.63
  YS02001918           JUNCTION     0.16     1.81     8.88     0  01:41        1.32
  YS02001920           JUNCTION     0.24     1.57     8.58     0  01:41        1.39
  YS02001923           JUNCTION     0.11     1.17     8.43     0  01:43        1.12
  YS02001926           JUNCTION     0.15     1.16     8.61     0  01:43        0.95
  YS02001929           JUNCTION     0.08     0.76     8.45     0  01:43        0.72
  YS02006553           JUNCTION     0.70     1.97     8.25     0  01:42        1.97
  YS02006556           JUNCTION     0.67     1.93     8.24     0  01:42        1.93
  YS02006558           JUNCTION     0.71     1.95     8.22     0  01:42        1.92
  YS02006561           JUNCTION     0.16     0.91     7.57     0  01:42        0.85
  YS02163301           JUNCTION     0.51     1.94     8.45     0  01:49        1.94
  YS02163601           JUNCTION     0.59     2.01     8.41     0  01:49        2.01
  YS02164001           JUNCTION     0.52     1.90     8.35     0  01:49        1.90
  CC-1                 OUTFALL      0.00     0.00     0.00     0  00:00        0.00
  CC-2                 OUTFALL      0.00     0.00     0.00     0  00:00        0.00
  JK-1                 OUTFALL      0.00     0.00     0.00     0  00:00        0.00
  JK-2                 OUTFALL      0.00     0.00     0.00     0  00:00        0.00
  WSC                  OUTFALL      0.23     0.35     1.02     0  02:33        0.35
  CC-storage           STORAGE      0.75     1.42     6.92     0  02:01        1.42
  JK-storage           STORAGE      2.86     4.22     5.02     0  01:46        4.21
  XR-storage           STORAGE      7.82     9.26     7.26     0  08:00        9.26
  
  
  *******************
  Node Inflow Summary
  *******************
  
  -------------------------------------------------------------------------------------------------
                                  Maximum  Maximum                  Lateral       Total        Flow
                                  Lateral    Total  Time of Max      Inflow      Inflow     Balance
                                   Inflow   Inflow   Occurrence      Volume      Volume       Error
  Node                 Type           LPS      LPS  days hr:min    10^6 ltr    10^6 ltr     Percent
  -------------------------------------------------------------------------------------------------
  WS02001211           JUNCTION      7.35   200.29     0  02:46       0.212        5.44       0.611
  WS02001212           JUNCTION      0.00   202.55     0  02:45           0        5.41       0.290
  WS02001213           JUNCTION      0.00   203.71     0  03:10           0        5.39       0.330
  WS02003059           JUNCTION      0.00   208.48     0  03:10           0        5.38       0.592
  WS02003060           JUNCTION     16.53   753.25     0  02:36       0.476        8.86       0.159
  WS02003066           JUNCTION      0.00   538.58     0  02:36           0        3.03       0.040
  WS02003067           JUNCTION      0.00   538.50     0  02:35           0        3.04       0.132
  WS02003069           JUNCTION      0.32   753.03     0  02:37     0.00922        8.85       0.167
  WS02003072           JUNCTION      0.00   752.76     0  02:35           0        8.83       0.229
  WS02003073           JUNCTION      1.82   754.47     0  02:35      0.0524        8.86       0.235
  WS02004138           JUNCTION      0.00   380.00     0  00:00           0        5.25       0.053
  WS02004139           JUNCTION      0.32   191.16     0  00:29     0.00924        5.26       0.509
  WS02004401           JUNCTION      0.00   541.53     0  02:09           0        3.13       0.316
  WS02004402           JUNCTION      0.00   543.62     0  02:28           0        3.12       0.322
  WS02004403           JUNCTION      0.00   543.13     0  02:09           0        3.11       0.312
  WS02004404           JUNCTION      0.16   562.78     0  02:28     0.00467        3.11       0.192
  WS02004405           JUNCTION      0.04   603.05     0  02:02      0.0011         3.1       0.348
  WS02004406           JUNCTION      0.00   545.96     0  02:08           0        3.09       0.659
  WS02004407           JUNCTION      0.00   540.51     0  02:31           0        3.07       0.030
  WS02004409           JUNCTION      0.00   539.57     0  02:28           0        3.07       0.074
  WS02004410           JUNCTION      0.00   539.10     0  02:38           0        3.07       0.128
  WS02004411           JUNCTION      0.00   538.81     0  02:35           0        3.06       0.168
  WS02004412           JUNCTION      0.00   538.79     0  02:39           0        3.06       0.230
  WS02004413           JUNCTION      0.00   538.83     0  02:35           0        3.05       0.413
  WS02006109           JUNCTION      1.23   551.48     0  01:48      0.0354        3.17       0.251
  WS02006110           JUNCTION      0.00   552.09     0  01:48           0        3.17       0.204
  WS02006111           JUNCTION      0.00   560.26     0  01:53           0        3.16       0.025
  WS02006112           JUNCTION      0.00   543.44     0  02:28           0        3.16       0.556
  WS02006113           JUNCTION      0.00   563.85     0  01:48           0        3.16       0.047
  WS02006115           JUNCTION      0.00   556.16     0  02:03           0        3.14       0.198
  WS02006116           JUNCTION      0.00   541.74     0  02:09           0        3.13       0.063
  WS02006228           JUNCTION      0.00   550.13     0  01:48           0        3.14       0.111
  WS02006229           JUNCTION      0.00   549.58     0  01:48           0        3.15       0.161
  WS02006230           JUNCTION     10.28   590.32     0  02:45       0.296        3.15       0.173
  WS02006231           JUNCTION      0.00   573.18     0  02:40           0        2.85      -0.133
  WS02006232           JUNCTION      0.00   572.34     0  02:40           0        2.86       0.400
  WS02006234           JUNCTION      0.00   567.67     0  02:40           0        2.85      -0.336
  WS02006235           JUNCTION      0.00   560.36     0  02:40           0        2.95       0.362
  WS02006238           JUNCTION      0.00   422.90     0  02:46           0        1.98      -0.161
  WS02006239           JUNCTION      0.00   424.40     0  02:46           0        1.93      -0.063
  WS02006240           JUNCTION      0.00   422.72     0  02:46           0        1.89      -0.091
  WS02006242           JUNCTION      0.00   423.64     0  02:45           0        1.85      -0.137
  WS02006243           JUNCTION      0.00   424.46     0  02:45           0        1.83      -0.174
  WS02006245           JUNCTION      0.00   425.05     0  02:45           0        1.84       0.678
  WS02006247           JUNCTION      0.00   424.98     0  02:46           0        1.84      -0.148
  WS02006248           JUNCTION      0.00   426.10     0  02:46           0        1.83      -0.433
  WS02006249           JUNCTION      0.00   473.21     0  03:00           0        2.09       1.125
  WS02006251           JUNCTION      0.08   408.17     0  01:47     0.00222        2.09       0.031
  WS02006252           JUNCTION      0.00   400.00     0  00:00           0        2.07      -0.535
  WS02006256           JUNCTION      0.00   300.00     0  00:00           0        1.44      -0.588
  WSF200               JUNCTION      0.00   538.65     0  02:36           0        3.03       0.016
  YS02001580           JUNCTION      0.00   172.44     0  01:38           0     0.00428      -8.808
  YS02001583           JUNCTION      0.00   270.09     0  01:38           0      0.0145     -10.922
  YS02001586           JUNCTION    321.06   321.17     0  01:43       0.927       0.939       0.192
  YS02001590           JUNCTION      0.00   317.92     0  01:44           0       0.923      -0.045
  YS02001593           JUNCTION      0.00   317.91     0  01:45           0       0.924       0.025
  YS02001596           JUNCTION      0.00   317.91     0  01:44           0       0.924      -0.004
  YS02001600           JUNCTION      0.00   317.90     0  01:44           0       0.924       0.006
  YS02001601           JUNCTION    587.43   899.66     0  01:41        1.26        2.19       0.033
  YS02001602           JUNCTION      0.00   584.77     0  01:38           0        1.79       0.021
  YS02001605           JUNCTION      0.00   584.49     0  01:38           0        1.75       0.017
  YS02001607           JUNCTION      0.00   584.60     0  01:38           0        1.75       0.105
  YS02001610           JUNCTION      0.00   561.21     0  01:38           0        1.75       0.131
  YS02001613           JUNCTION      0.00   523.84     0  01:38           0        1.72       0.086
  YS02001616           JUNCTION      0.00   484.99     0  02:00           0        1.72       0.018
  YS02001619           JUNCTION    546.16   920.73     0  01:38        1.42        3.15      -0.002
  YS02001622           JUNCTION      0.00   920.59     0  01:38           0        3.14      -0.010
  YS02001625           JUNCTION      0.00   916.23     0  01:38           0        3.14       0.284
  YS02001629           JUNCTION      0.00   917.75     0  01:38           0        3.12      -0.005
  YS02001633           JUNCTION    443.85  1357.48     0  01:40       0.949        4.07       0.080
  YS02001641           JUNCTION      0.00  1357.60     0  01:40           0        4.07       0.067
  YS02001644           JUNCTION    381.50  1738.55     0  01:40       0.777        4.84       0.066
  YS02001647           JUNCTION      0.00  1738.85     0  01:40           0        4.83       0.005
  YS02001649           JUNCTION      0.00  2101.47     0  01:40           0        5.57       0.006
  YS02001652           JUNCTION      0.00   447.73     0  01:40           0       0.736      -0.248
  YS02001655           JUNCTION      0.15   459.08     0  01:47     0.00443       0.736       0.073
  YS02001658           JUNCTION      0.00   377.50     0  01:40           0       0.732       0.006
  YS02001661           JUNCTION      0.00   377.13     0  01:40           0       0.732       0.039
  YS02001664           JUNCTION    377.22   377.22     0  01:40       0.732       0.732      -0.012
  YS02001745           JUNCTION    245.04   245.04     0  01:39       0.426       0.426       0.210
  YS02001748           JUNCTION      0.04   244.96     0  01:39      0.0013       0.426      -0.266
  YS02001751           JUNCTION      0.01   276.36     0  01:42    0.000317       0.428       0.304
  YS02001754           JUNCTION      0.26   364.87     0  01:45     0.00749       0.435      -0.534
  YS02001757           JUNCTION      0.00  2691.70     0  01:44           0        7.56       0.059
  YS02001759           JUNCTION    350.81   817.65     0  01:43        0.62        1.55      -0.017
  YS02001762           JUNCTION      0.00   509.06     0  01:42           0       0.935       0.019
  YS02001765           JUNCTION      0.00   505.71     0  01:43           0       0.935       0.018
  YS02001767           JUNCTION      0.54   508.05     0  01:42      0.0154       0.935       0.017
  YS02001770           JUNCTION    484.70   512.51     0  01:42        0.92       0.966       0.007
  YS02001774           JUNCTION      0.00   137.28     0  01:39           0      0.0709       1.466
  YS02001779           JUNCTION      0.01    91.52     0  01:42    0.000144      0.0244      -0.371
  YS02001783           JUNCTION      0.00  1138.84     0  01:44           0        2.79       0.008
  YS02001784           JUNCTION      1.06  1140.23     0  01:44      0.0305        2.82       0.015
  YS02001786           JUNCTION      0.06  1139.79     0  01:44     0.00162        2.82       0.023
  YS02001788           JUNCTION      0.07  1140.33     0  01:44     0.00204        2.82       0.011
  YS02001790           JUNCTION      0.15  1154.18     0  01:43     0.00446        2.82       0.019
  YS02001791           JUNCTION      0.00  1251.49     0  01:46           0        2.82      -0.007
  YS02001793           JUNCTION      0.00  1215.52     0  01:44           0        2.82       0.010
  YS02001882           JUNCTION      0.00    73.37     0  01:39           0      0.0124       5.071
  YS02001884           JUNCTION      0.00   110.04     0  01:39           0      0.0481       5.211
  YS02001887           JUNCTION    388.21   408.54     0  01:39       0.651       0.684       0.642
  YS02001890           JUNCTION      0.00   411.54     0  01:39           0       0.643       0.768
  YS02001895           JUNCTION      0.00   412.56     0  01:39           0       0.638       0.274
  YS02001898           JUNCTION      0.00   407.68     0  01:39           0       0.637       0.013
  YS02001901           JUNCTION      0.00   413.88     0  01:40           0       0.639       0.505
  YS02001904           JUNCTION      0.00   414.84     0  01:40           0       0.647       0.415
  YS02001907           JUNCTION      0.00   953.59     0  01:44           0        1.97       0.896
  YS02001910           JUNCTION      0.00   667.02     0  01:44           0        1.32       0.527
  YS02001915           JUNCTION    392.76   667.03     0  01:44       0.794        1.35       0.098
  YS02001918           JUNCTION      0.00   313.34     0  01:44           0       0.563       0.029
  YS02001920           JUNCTION      2.87   312.50     0  01:44      0.0827       0.547       0.182
  YS02001923           JUNCTION      0.04   348.24     0  01:44     0.00109       0.459      -0.107
  YS02001926           JUNCTION      0.05   323.07     0  01:42      0.0015       0.452      -0.005
  YS02001929           JUNCTION    198.05   198.05     0  01:42       0.447       0.447      -0.010
  YS02006553           JUNCTION      0.00   777.72     0  01:49           0        1.94       0.603
  YS02006556           JUNCTION      0.00   778.19     0  01:49           0        1.95       0.399
  YS02006558           JUNCTION    478.93  1141.04     0  01:42       0.899        2.82       0.127
  YS02006561           JUNCTION      0.00  1142.24     0  01:42           0        2.79      -0.005
  YS02163301           JUNCTION      0.00   916.74     0  01:40           0        3.13       0.045
  YS02163601           JUNCTION      0.11  1357.59     0  01:40     0.00317        4.07       0.113
  YS02164001           JUNCTION      0.00  1357.71     0  01:40           0        4.07       0.059
  CC-1                 OUTFALL       0.00   683.00     0  00:00           0        3.28       0.000
  CC-2                 OUTFALL       0.00   683.00     0  00:00           0        2.96       0.000
  JK-1                 OUTFALL       0.00  1000.00     0  00:00           0        1.29       0.000
  JK-2                 OUTFALL       0.00  1000.00     0  00:00           0      0.0484       0.000
  WSC                  OUTFALL       0.00   754.37     0  02:33           0        8.84       0.000
  CC-storage           STORAGE       0.00  2693.84     0  01:44           0        9.79      -0.276
  JK-storage           STORAGE       0.00  1262.33     0  01:44           0        2.97       0.203
  XR-storage           STORAGE     200.00   200.00     0  00:00        5.76        6.36       0.001
  
  
  **********************
  Node Surcharge Summary
  **********************
  
  Surcharging occurs when water rises above the top of the highest conduit.
  ---------------------------------------------------------------------
                                               Max. Height   Min. Depth
                                   Hours       Above Crown    Below Rim
  Node                 Type      Surcharged         Meters       Meters
  ---------------------------------------------------------------------
  WS02004404           JUNCTION        0.06          0.039        2.741
  WS02006109           JUNCTION        1.17          0.227        1.593
  WS02006110           JUNCTION        0.87          0.137        1.713
  WS02006112           JUNCTION        0.87          0.092        1.588
  WS02006228           JUNCTION        1.16          0.249        1.951
  WS02006229           JUNCTION        1.17          0.300        2.150
  WS02006230           JUNCTION        0.88          0.150        1.420
  WS02006231           JUNCTION        0.91          0.405        1.125
  WS02006232           JUNCTION        1.19          0.580        0.900
  WS02006234           JUNCTION        1.02          0.560        0.680
  WS02006235           JUNCTION        1.17          0.723        0.567
  WS02006238           JUNCTION        1.18          0.757        0.673
  WS02006239           JUNCTION        1.17          0.703        0.587
  WS02006240           JUNCTION        1.17          0.697        0.693
  WS02006242           JUNCTION        1.18          0.721        0.099
  WS02006243           JUNCTION        1.16          0.611        0.159
  WS02006245           JUNCTION        1.16          0.536        0.314
  WS02006247           JUNCTION        1.16          0.522        0.238
  WS02006248           JUNCTION        1.15          0.380        0.000
  WS02006249           JUNCTION        1.15          0.390        0.000
  WS02006251           JUNCTION        0.94          0.383        0.797
  WS02006252           JUNCTION        1.40          1.100        0.000
  WS02006256           JUNCTION        4.19          2.050        0.000
  YS02001580           JUNCTION        0.27          0.450        0.000
  YS02001583           JUNCTION        0.28          0.500        0.000
  YS02001586           JUNCTION        0.44          0.510        0.000
  YS02001590           JUNCTION        0.51          0.750        0.000
  YS02001593           JUNCTION        0.51          0.740        0.100
  YS02001596           JUNCTION        0.60          0.974        0.096
  YS02001600           JUNCTION        0.72          1.190        0.000
  YS02001601           JUNCTION        1.10          1.440        0.000
  YS02001602           JUNCTION        0.96          1.270        0.000
  YS02001605           JUNCTION        0.90          1.180        0.000
  YS02001607           JUNCTION        0.46          0.652        0.028
  YS02001610           JUNCTION        0.49          0.680        0.000
  YS02001613           JUNCTION        0.46          0.700        0.000
  YS02001616           JUNCTION        0.42          0.610        0.000
  YS02001619           JUNCTION        0.40          0.610        0.000
  YS02001622           JUNCTION        0.40          0.594        0.026
  YS02001625           JUNCTION        0.56          0.780        0.000
  YS02001629           JUNCTION        0.34          0.470        0.000
  YS02001633           JUNCTION        0.58          0.991        0.069
  YS02001641           JUNCTION        0.52          0.848        0.252
  YS02001644           JUNCTION        0.48          0.744        0.176
  YS02001647           JUNCTION        0.27          0.389        0.511
  YS02001649           JUNCTION        0.38          0.477        0.573
  YS02001652           JUNCTION        0.15          0.573        0.557
  YS02001754           JUNCTION        0.01          0.099        1.051
  YS02001757           JUNCTION        0.43          0.416        0.794
  YS02001759           JUNCTION        0.32          0.320        0.890
  YS02001762           JUNCTION        0.29          0.303        0.847
  YS02001765           JUNCTION        0.24          0.431        0.669
  YS02001767           JUNCTION        0.20          0.279        0.751
  YS02001770           JUNCTION        0.17          0.299        0.621
  YS02001774           JUNCTION        0.28          0.414        0.636
  YS02001779           JUNCTION        0.01          0.160        0.520
  YS02001783           JUNCTION        0.28          0.436        1.164
  YS02001784           JUNCTION        0.26          0.315        1.175
  YS02001786           JUNCTION        0.14          0.086        1.344
  YS02001882           JUNCTION        0.22          0.830        0.000
  YS02001884           JUNCTION        0.24          0.870        0.000
  YS02001887           JUNCTION        0.27          0.950        0.000
  YS02001890           JUNCTION        0.29          0.760        0.000
  YS02001895           JUNCTION        0.22          0.750        0.000
  YS02001898           JUNCTION        0.21          0.740        0.000
  YS02001901           JUNCTION        0.26          0.870        0.000
  YS02001904           JUNCTION        0.25          0.746        0.104
  YS02001907           JUNCTION        0.45          0.950        0.000
  YS02001910           JUNCTION        0.31          1.100        0.000
  YS02001915           JUNCTION        0.22          1.000        0.000
  YS02001918           JUNCTION        0.11          0.810        0.000
  YS02001920           JUNCTION        0.14          0.572        0.568
  YS02001926           JUNCTION        0.01          0.164        0.736
  YS02006553           JUNCTION        0.46          0.969        0.221
  YS02006556           JUNCTION        0.38          0.889        0.461
  YS02006558           JUNCTION        0.37          0.854        0.546
  YS02006561           JUNCTION        0.06          0.105        1.045
  YS02163301           JUNCTION        0.56          0.935        0.095
  YS02163601           JUNCTION        0.60          1.009        0.071
  YS02164001           JUNCTION        0.52          0.895        0.205
  
  
  *********************
  Node Flooding Summary
  *********************
  
  Flooding refers to all water that overflows a node, whether it ponds or not.
  --------------------------------------------------------------------------
                                                             Total   Maximum
                                 Maximum   Time of Max       Flood    Ponded
                        Hours       Rate    Occurrence      Volume     Depth
  Node                 Flooded       LPS   days hr:min    10^6 ltr    Meters
  --------------------------------------------------------------------------
  WS02006248              0.01     14.99      0  02:45       0.000     0.000
  WS02006249              0.93    109.08      0  01:47       0.232     0.000
  WS02006252              0.01    245.63      0  00:00       0.000     0.000
  WS02006256              1.33    293.19      0  00:00       0.422     0.000
  YS02001580              0.01     80.57      0  01:38       0.000     0.000
  YS02001583              0.01    143.06      0  01:38       0.000     0.000
  YS02001586              0.08    130.25      0  01:38       0.003     0.000
  YS02001590              0.01      1.68      0  01:38       0.000     0.000
  YS02001600              0.01      7.54      0  01:37       0.000     0.000
  YS02001601              0.37    501.85      0  01:41       0.393     0.000
  YS02001602              0.24     62.00      0  01:46       0.039     0.000
  YS02001605              0.01      3.34      0  01:38       0.000     0.000
  YS02001610              0.15     87.13      0  01:45       0.029     0.000
  YS02001613              0.01     17.65      0  01:38       0.000     0.000
  YS02001616              0.01     56.21      0  01:38       0.000     0.000
  YS02001619              0.01     91.37      0  01:38       0.000     0.000
  YS02001625              0.11    128.38      0  01:38       0.013     0.000
  YS02001629              0.01    239.57      0  01:38       0.001     0.000
  YS02001882              0.01     17.99      0  01:40       0.000     0.000
  YS02001884              0.01     20.28      0  01:40       0.000     0.000
  YS02001887              0.01     11.06      0  01:40       0.000     0.000
  YS02001890              0.01     31.58      0  01:42       0.000     0.000
  YS02001895              0.01      1.88      0  01:42       0.000     0.000
  YS02001898              0.01      4.34      0  01:42       0.000     0.000
  YS02001901              0.01      1.09      0  01:42       0.000     0.000
  YS02001907              0.05    215.33      0  01:44       0.021     0.000
  YS02001910              0.01     44.31      0  01:40       0.000     0.000
  YS02001915              0.01    154.18      0  01:40       0.000     0.000
  YS02001918              0.01     82.94      0  01:41       0.000     0.000
  
  
  **********************
  Storage Volume Summary
  **********************
  
  ------------------------------------------------------------------------------------------------
                         Average    Avg   Evap  Exfil     Maximum    Max    Time of Max    Maximum
                          Volume   Pcnt   Pcnt   Pcnt      Volume   Pcnt     Occurrence    Outflow
  Storage Unit           1000 m³   Full   Loss   Loss     1000 m³   Full    days hr:min        LPS
  ------------------------------------------------------------------------------------------------
  CC-storage               2.086   32.5    0.0    0.0       3.950   61.6       0  02:01    1783.53
  JK-storage               0.143   49.2    0.0    0.0       0.212   72.8       0  01:46    2300.00
  XR-storage               0.939   65.2    0.0    0.0       1.111   77.2       0  08:00     380.00
  
  
  ***********************
  Outfall Loading Summary
  ***********************
  
  -----------------------------------------------------------
                         Flow       Avg       Max       Total
                         Freq      Flow      Flow      Volume
  Outfall Node           Pcnt       LPS       LPS    10^6 ltr
  -----------------------------------------------------------
  CC-1                  30.70    683.00    683.00       3.285
  CC-2                  27.22    683.00    683.00       2.962
  JK-1                  11.43   1000.00   1000.00       1.294
  JK-2                   0.26   1000.00   1000.00       0.048
  WSC                   99.92    370.53    754.37       8.843
  -----------------------------------------------------------
  System                33.91   3736.53   3366.23      16.432
  
  
  ********************
  Link Flow Summary
  ********************
  
  -----------------------------------------------------------------------------
                                 Maximum  Time of Max   Maximum    Max/    Max/
                                  |Flow|   Occurrence   |Veloc|    Full    Full
  Link                 Type          LPS  days hr:min     m/sec    Flow   Depth
  -----------------------------------------------------------------------------
  1                    CONDUIT    754.37     0  02:33      3.08    0.26    0.35
  WS02001211WS02001212 CONDUIT    202.55     0  02:45      0.54    0.15    0.51
  WS02001212WS02001213 CONDUIT    203.71     0  03:10      1.04    0.31    0.36
  WS02001213WS02003059 CONDUIT    208.48     0  03:10      0.47    0.34    0.67
  WS02003059WS02003060 CONDUIT    214.86     0  03:10      0.67    0.14    0.59
  WS02003060WS02003069 CONDUIT    752.71     0  02:37      1.77    0.29    0.40
  WS02003066WSF200     CONDUIT    538.65     0  02:36      2.74    0.09    0.23
  WS02003067WS02003066 CONDUIT    538.58     0  02:36      1.21    0.17    0.42
  WS02003069WS02003072 CONDUIT    752.76     0  02:35      1.51    0.36    0.45
  WS02003072WS02003073 CONDUIT    752.65     0  02:35      1.60    1.63    0.43
  WS02004138WS02004139 CONDUIT    190.84     0  00:29      2.17    0.04    0.33
  WS02004139WS02001211 CONDUIT    192.94     0  02:46      0.54    0.24    0.47
  WS02004401WS02004402 CONDUIT    543.62     0  02:28      0.97    0.65    0.89
  WS02004402WS02004403 CONDUIT    543.13     0  02:09      0.97    0.78    0.91
  WS02004403WS02004404 CONDUIT    562.62     0  02:28      0.92    0.41    0.96
  WS02004404WS02004405 CONDUIT    603.01     0  02:02      1.08    5.91    0.98
  WS02004405WS02004406 CONDUIT    545.96     0  02:08      0.99    1.08    0.96
  WS02004406WS02004407 CONDUIT    540.51     0  02:31      1.04    0.24    0.63
  WS02004407WS02004409 CONDUIT    539.57     0  02:28      1.58    0.19    0.48
  WS02004409WS02004410 CONDUIT    539.10     0  02:38      1.05    0.70    0.68
  WS02004410WS02004411 CONDUIT    538.81     0  02:35      1.02    0.74    0.69
  WS02004411WS02004412 CONDUIT    538.79     0  02:39      0.98    0.77    0.70
  WS02004412WS02004413 CONDUIT    538.83     0  02:35      0.82    0.36    0.78
  WS02004413WS02003067 CONDUIT    538.50     0  02:35      1.11    0.23    0.59
  WS02006109WS02006110 CONDUIT    552.09     0  01:48      1.10    1.06    1.00
  WS02006110WS02006113 CONDUIT    563.85     0  01:48      1.36    0.51    0.78
  WS02006111WS02006112 CONDUIT    543.44     0  02:28      1.82    0.26    0.67
  WS02006112WS02006115 CONDUIT    556.16     0  02:03      0.88    0.33    0.88
  WS02006113WS02006111 CONDUIT    560.26     0  01:53      2.46    0.67    0.46
  WS02006115WS02006116 CONDUIT    541.74     0  02:09      1.15    0.70    0.79
  WS02006116WS02004401 CONDUIT    541.53     0  02:09      0.99    0.75    0.87
  WS02006228WS02006109 CONDUIT    550.25     0  01:48      1.09    2.40    1.00
  WS02006229WS02006228 CONDUIT    550.13     0  01:48      1.15    1.82    1.00
  WS02006230WS02006229 CONDUIT    549.58     0  01:48      1.43   12.23    1.00
  WS02006231WS02006230 CONDUIT    580.04     0  02:45      1.56    8.80    1.00
  WS02006232WS02006231 CONDUIT    573.18     0  02:40      1.49    1.20    1.00
  WS02006234WS02006232 CONDUIT    572.34     0  02:40      1.49    1.16    1.00
  WS02006235WS02006234 CONDUIT    567.67     0  02:40      1.48    5.99    1.00
  WS02006238WS02006235 CONDUIT    421.82     0  02:46      1.56    0.94    1.00
  WS02006239WS02006238 CONDUIT    422.90     0  02:46      1.11    1.35    1.00
  WS02006240WS02006239 CONDUIT    424.40     0  02:46      1.24    1.34    1.00
  WS02006242WS02006240 CONDUIT    422.72     0  02:46      1.12    1.68    1.00
  WS02006243WS02006242 CONDUIT    423.64     0  02:45      1.39    0.91    1.00
  WS02006245WS02006243 CONDUIT    424.46     0  02:45      1.45    1.26    1.00
  WS02006247WS02006245 CONDUIT    425.05     0  02:45      1.44    3.37    1.00
  WS02006248WS02006247 CONDUIT    424.98     0  02:46      1.45    0.93    1.00
  WS02006249WS02006248 CONDUIT    426.10     0  02:46      1.38    2.33    1.00
  WS02006251WS02006249 CONDUIT    473.21     0  03:00      1.99    1.36    1.00
  WS02006252WS02006251 CONDUIT    408.09     0  01:47     25.11    1.50    1.00
  WS02006256WS02006235 CONDUIT    289.21     0  01:40      4.23    3.06    1.00
  WSF200WS02003060     CONDUIT    539.07     0  02:12      1.76    0.12    0.32
  YS02001580YS02001583 CONDUIT    172.44     0  01:38      0.91    0.67    1.00
  YS02001583YS02001586 CONDUIT    197.36     0  01:38      0.91    0.30    1.00
  YS02001586YS02001590 CONDUIT    317.92     0  01:44      1.33    0.56    1.00
  YS02001590YS02001593 CONDUIT    317.91     0  01:45      1.12    2.00    1.00
  YS02001593YS02001596 CONDUIT    317.91     0  01:44      1.72    0.50    1.00
  YS02001596YS02001600 CONDUIT    317.90     0  01:44      1.18    0.62    1.00
  YS02001600YS02001601 CONDUIT    317.82     0  01:45      1.12    0.55    1.00
  YS02001601YS02001602 CONDUIT    584.77     0  01:38      2.07    2.11    1.00
  YS02001602YS02001605 CONDUIT    584.49     0  01:38      2.07   12.37    1.00
  YS02001605YS02001607 CONDUIT    584.60     0  01:38      2.07    3.21    1.00
  YS02001607YS02001610 CONDUIT    561.21     0  01:38      0.74    0.53    1.00
  YS02001610YS02001613 CONDUIT    523.84     0  01:38      0.70    0.60    1.00
  YS02001613YS02001616 CONDUIT    484.99     0  02:00      0.69    0.42    1.00
  YS02001616YS02001619 CONDUIT    486.42     0  02:00      0.66    0.84    1.00
  YS02001619YS02001622 CONDUIT    920.59     0  01:38      1.36    1.36    1.00
  YS02001622YS02001625 CONDUIT    916.23     0  01:38      1.17    0.49    1.00
  YS02001625YS02001629 CONDUIT    917.75     0  01:38      1.17    0.44    1.00
  YS02001629YS02163301 CONDUIT    916.74     0  01:40      1.17    1.13    1.00
  YS02001633YS02163601 CONDUIT   1357.48     0  01:40      1.73    1.43    1.00
  YS02001641YS02001644 CONDUIT   1357.67     0  01:40      1.73    4.39    1.00
  YS02001644YS02001647 CONDUIT   1738.85     0  01:40      2.28    1.02    1.00
  YS02001647YS02001649 CONDUIT   1766.75     0  01:40      2.35    0.93    1.00
  YS02001649YS02001757 CONDUIT   2104.10     0  01:40      2.68    1.28    1.00
  YS02001652YS02001649 CONDUIT    456.41     0  01:40      0.89    0.23    1.00
  YS02001655YS02001652 CONDUIT    447.73     0  01:40      1.66    0.22    0.98
  YS02001658YS02001655 CONDUIT    458.93     0  01:47      2.06    0.19    0.78
  YS02001661YS02001658 CONDUIT    377.50     0  01:40      2.26    0.15    0.44
  YS02001664YS02001661 CONDUIT    377.13     0  01:40      2.08    0.12    0.28
  YS02001745YS02001748 CONDUIT    244.91     0  01:39      2.08    0.09    0.32
  YS02001748YS02001751 CONDUIT    259.48     0  01:45      1.74    0.13    0.65
  YS02001751YS02001754 CONDUIT    364.61     0  01:45      1.66    0.18    0.85
  YS02001754YS02001757 CONDUIT    230.97     0  01:45      0.65    0.09    1.00
  YS02001757CaochengTiaoxuchi CONDUIT   2693.84     0  01:44      3.43    1.17    1.00
  YS02001759YS02001757 CONDUIT    817.46     0  01:42      1.09    0.58    1.00
  YS02001762YS02001759 CONDUIT    511.26     0  01:43      0.65    0.59    1.00
  YS02001765YS02001762 CONDUIT    509.06     0  01:42      0.74    0.48    1.00
  YS02001767YS02001765 CONDUIT    505.71     0  01:43      0.90    0.64    1.00
  YS02001770YS02001767 CONDUIT    507.51     0  01:42      0.95    2.01    1.00
  YS02001774YS02001770 CONDUIT    137.28     0  01:39      0.24    0.09    1.00
  YS02001779YS02001774 CONDUIT     91.51     0  01:42      0.14    0.05    1.00
  YS02001783YS02001784 CONDUIT   1139.17     0  01:44      2.27    1.57    1.00
  YS02001784YS02001785 CONDUIT   1139.74     0  01:44      2.27    2.65    1.00
  YS02001786YS02001788 CONDUIT   1140.26     0  01:44      2.44    2.20    0.88
  YS02001788YS02001790 CONDUIT   1154.02     0  01:43      2.70    0.85    0.82
  YS02001790YS02001791 CONDUIT   1251.49     0  01:46      3.41    1.36    0.69
  YS02001791YS02001793 CONDUIT   1215.52     0  01:44      6.68    0.52    0.43
  YS02001793JiankangQianchi CONDUIT   1262.33     0  01:44      2.53    0.10    0.64
  YS02001882YS02001884 CONDUIT     73.37     0  01:39      0.14    0.08    1.00
  YS02001884YS02001887 CONDUIT    110.04     0  01:39      0.14    0.15    1.00
  YS02001887YS02001890 CONDUIT    411.54     0  01:39      0.52    0.70    1.00
  YS02001890YS02001895 CONDUIT    412.56     0  01:39      0.53    0.19    1.00
  YS02001895YS02001898 CONDUIT    407.68     0  01:39      0.52    0.71    1.00
  YS02001898YS02001901 CONDUIT    413.88     0  01:40      0.53    0.27    1.00
  YS02001901YS02001904 CONDUIT    414.84     0  01:40      0.53    0.64    1.00
  YS02001904YS02001907 CONDUIT    415.34     0  01:40      0.53    0.15    1.00
  YS02001907YS02006553 CONDUIT    777.72     0  01:49      0.86    0.91    1.00
  YS02001910YS02001907 CONDUIT    666.90     0  01:44      0.85    0.38    1.00
  YS02001915YS02001910 CONDUIT    667.02     0  01:44      0.85    0.33    1.00
  YS02001918YS02001915 CONDUIT    323.75     0  01:51      0.44    0.18    1.00
  YS02001920YS02001918 CONDUIT    313.34     0  01:44      0.69    0.30    1.00
  YS02001923YS02001920 CONDUIT    309.63     0  01:44      0.85    0.14    1.00
  YS02001926YS02001923 CONDUIT    348.20     0  01:44      0.97    0.50    0.94
  YS02001929YS02001926 CONDUIT    296.21     0  01:44      1.09    0.14    0.86
  YS02006553YS02006556 CONDUIT    778.19     0  01:49      0.99    0.67    1.00
  YS02006556YS02006558 CONDUIT    779.34     0  01:49      0.99    0.62    1.00
  YS02006558YS02006561 CONDUIT   1142.24     0  01:42      4.04    2.52    1.00
  YS02006561YS02001783 CONDUIT   1138.84     0  01:44      2.28    0.59    1.00
  YS02163301YS02001633 CONDUIT    916.57     0  01:40      1.17    0.86    1.00
  YS02163601YS02164001 CONDUIT   1357.71     0  01:40      1.73    1.20    1.00
  YS02164001YS02001641 CONDUIT   1357.60     0  01:40      1.73    1.85    1.00
  CC-R1                PUMP       683.00     0  00:00              1.00
  CC-R2                PUMP       683.00     0  00:00              1.00
  CC-S1                PUMP       200.00     0  00:00              1.00
  CC-S2                PUMP       200.00     0  00:00              1.00
  JK-R1                PUMP      1000.00     0  00:00              1.00
  JK-R2                PUMP      1000.00     0  00:00              1.00
  JK-S                 PUMP       300.00     0  00:00              1.00
  XR-1                 PUMP        95.00     0  00:00              1.00
  XR-2                 PUMP        95.00     0  00:00              1.00
  XR-3                 PUMP        95.00     0  00:00              1.00
  XR-4                 PUMP        95.00     0  00:00              1.00
  
  
  ***************************
  Flow Classification Summary
  ***************************
  
  -------------------------------------------------------------------------------------
                      Adjusted    ---------- Fraction of Time in Flow Class ---------- 
                       /Actual         Up    Down  Sub   Sup   Up    Down  Norm  Inlet 
  Conduit               Length    Dry  Dry   Dry   Crit  Crit  Crit  Crit  Ltd   Ctrl  
  -------------------------------------------------------------------------------------
  1                       1.00   0.00  0.00  0.00  0.00  1.00  0.00  0.00  0.20  0.00
  WS02001211WS02001212    1.00   0.00  0.02  0.00  0.98  0.00  0.00  0.00  0.00  0.00
  WS02001212WS02001213    1.00   0.02  0.00  0.00  0.17  0.00  0.81  0.00  0.00  0.00
  WS02001213WS02003059    1.00   0.00  0.01  0.00  0.99  0.00  0.00  0.00  0.00  0.00
  WS02003059WS02003060    1.00   0.00  0.00  0.00  1.00  0.00  0.00  0.00  0.03  0.00
  WS02003060WS02003069    1.00   0.00  0.00  0.00  0.98  0.02  0.00  0.00  0.66  0.00
  WS02003066WSF200        1.00   0.13  0.00  0.00  0.00  0.87  0.00  0.00  0.76  0.00
  WS02003067WS02003066    1.00   0.10  0.02  0.00  0.88  0.00  0.00  0.00  0.00  0.00
  WS02003069WS02003072    1.00   0.00  0.00  0.00  1.00  0.00  0.00  0.00  0.80  0.00
  WS02003072WS02003073    1.00   0.00  0.00  0.00  0.00  0.00  0.00  1.00  0.00  0.00
  WS02004138WS02004139    1.00   0.00  0.00  0.00  0.97  0.01  0.00  0.02  0.98  0.00
  WS02004139WS02001211    1.00   0.00  0.00  0.00  0.99  0.00  0.00  0.00  0.00  0.00
  WS02004401WS02004402    1.00   0.02  0.00  0.00  0.98  0.00  0.00  0.00  0.00  0.00
  WS02004402WS02004403    1.00   0.02  0.00  0.00  0.97  0.00  0.00  0.00  0.00  0.00
  WS02004403WS02004404    1.00   0.00  0.03  0.00  0.97  0.00  0.00  0.00  0.00  0.00
  WS02004404WS02004405    1.00   0.00  0.00  0.00  1.00  0.00  0.00  0.00  0.01  0.00
  WS02004405WS02004406    1.00   0.00  0.00  0.00  1.00  0.00  0.00  0.00  0.00  0.00
  WS02004406WS02004407    1.00   0.00  0.05  0.00  0.95  0.00  0.00  0.00  0.00  0.00
  WS02004407WS02004409    1.00   0.05  0.00  0.00  0.94  0.01  0.00  0.00  0.94  0.00
  WS02004409WS02004410    1.00   0.05  0.00  0.00  0.95  0.00  0.00  0.00  0.03  0.00
  WS02004410WS02004411    1.00   0.05  0.00  0.00  0.95  0.00  0.00  0.00  0.01  0.00
  WS02004411WS02004412    1.00   0.05  0.00  0.00  0.95  0.00  0.00  0.00  0.00  0.00
  WS02004412WS02004413    1.00   0.05  0.00  0.00  0.94  0.00  0.00  0.00  0.01  0.00
  WS02004413WS02003067    1.00   0.06  0.04  0.00  0.00  0.00  0.90  0.00  0.00  0.00
  WS02006109WS02006110    1.00   0.00  0.01  0.00  0.98  0.00  0.01  0.00  0.00  0.00
  WS02006110WS02006113    1.00   0.01  0.01  0.00  0.98  0.00  0.00  0.00  0.00  0.00
  WS02006111WS02006112    1.00   0.02  0.00  0.00  0.98  0.00  0.00  0.00  0.98  0.00
  WS02006112WS02006115    1.00   0.02  0.00  0.00  0.97  0.00  0.00  0.00  0.00  0.00
  WS02006113WS02006111    1.00   0.02  0.00  0.00  0.00  0.98  0.00  0.00  0.09  0.00
  WS02006115WS02006116    1.00   0.02  0.00  0.00  0.97  0.00  0.00  0.01  0.00  0.00
  WS02006116WS02004401    1.00   0.02  0.00  0.00  0.98  0.00  0.00  0.00  0.00  0.00
  WS02006228WS02006109    1.00   0.00  0.00  0.00  1.00  0.00  0.00  0.00  0.00  0.00
  WS02006229WS02006228    1.00   0.00  0.00  0.00  0.99  0.00  0.00  0.01  0.00  0.00
  WS02006230WS02006229    1.00   0.00  0.00  0.00  0.99  0.00  0.00  0.01  0.02  0.00
  WS02006231WS02006230    1.00   0.00  0.00  0.00  0.15  0.00  0.85  0.00  0.00  0.00
  WS02006232WS02006231    1.00   0.00  0.00  0.00  0.99  0.00  0.01  0.00  0.00  0.00
  WS02006234WS02006232    1.00   0.00  0.00  0.00  1.00  0.00  0.00  0.00  0.28  0.00
  WS02006235WS02006234    1.00   0.00  0.00  0.00  0.64  0.00  0.36  0.00  0.00  0.00
  WS02006238WS02006235    1.00   0.00  0.00  0.00  1.00  0.00  0.00  0.00  0.00  0.00
  WS02006239WS02006238    1.00   0.00  0.00  0.00  1.00  0.00  0.00  0.00  0.48  0.00
  WS02006240WS02006239    1.00   0.00  0.00  0.00  0.42  0.00  0.00  0.58  0.02  0.00
  WS02006242WS02006240    1.00   0.00  0.00  0.00  1.00  0.00  0.00  0.00  0.00  0.00
  WS02006243WS02006242    1.00   0.00  0.00  0.00  0.99  0.00  0.00  0.01  0.74  0.00
  WS02006245WS02006243    1.00   0.00  0.00  0.00  0.45  0.00  0.00  0.55  0.02  0.00
  WS02006247WS02006245    1.00   0.00  0.00  0.00  0.98  0.00  0.00  0.02  0.00  0.00
  WS02006248WS02006247    1.00   0.00  0.00  0.00  0.99  0.00  0.00  0.01  0.25  0.00
  WS02006249WS02006248    1.00   0.00  0.00  0.00  0.29  0.00  0.71  0.00  0.00  0.00
  WS02006251WS02006249    1.00   0.00  0.00  0.00  0.99  0.01  0.00  0.00  0.74  0.00
  WS02006252WS02006251    1.00   0.00  0.76  0.00  0.12  0.00  0.12  0.00  0.00  0.00
  WS02006256WS02006235    1.00   0.00  0.00  0.00  0.99  0.01  0.00  0.00  0.00  0.00
  WSF200WS02003060        1.00   0.00  0.13  0.00  0.73  0.14  0.00  0.00  0.71  0.00
  YS02001580YS02001583    1.00   0.20  0.64  0.00  0.16  0.00  0.00  0.00  0.74  0.00
  YS02001583YS02001586    1.00   0.50  0.28  0.00  0.21  0.00  0.00  0.00  0.74  0.00
  YS02001586YS02001590    1.00   0.13  0.00  0.00  0.36  0.04  0.00  0.47  0.33  0.00
  YS02001590YS02001593    1.00   0.13  0.01  0.00  0.07  0.00  0.79  0.00  0.00  0.00
  YS02001593YS02001596    1.00   0.14  0.00  0.00  0.09  0.01  0.00  0.77  0.02  0.00
  YS02001596YS02001600    1.00   0.14  0.00  0.00  0.17  0.02  0.00  0.67  0.07  0.00
  YS02001600YS02001601    1.00   0.13  0.01  0.00  0.86  0.00  0.00  0.00  0.63  0.00
  YS02001601YS02001602    1.00   0.13  0.01  0.00  0.86  0.00  0.00  0.00  0.00  0.00
  YS02001602YS02001605    1.00   0.14  0.00  0.00  0.86  0.00  0.00  0.00  0.00  0.00
  YS02001605YS02001607    1.00   0.14  0.00  0.00  0.86  0.00  0.00  0.00  0.00  0.00
  YS02001607YS02001610    1.00   0.13  0.01  0.00  0.86  0.00  0.00  0.00  0.02  0.00
  YS02001610YS02001613    1.00   0.13  0.00  0.00  0.87  0.00  0.00  0.00  0.00  0.00
  YS02001613YS02001616    1.00   0.13  0.00  0.00  0.87  0.00  0.00  0.00  0.00  0.00
  YS02001616YS02001619    1.00   0.13  0.00  0.00  0.87  0.00  0.00  0.00  0.00  0.00
  YS02001619YS02001622    1.00   0.13  0.00  0.00  0.87  0.00  0.00  0.00  0.36  0.00
  YS02001622YS02001625    1.00   0.13  0.00  0.00  0.87  0.00  0.00  0.00  0.04  0.00
  YS02001625YS02001629    1.00   0.13  0.05  0.00  0.11  0.00  0.71  0.00  0.00  0.00
  YS02001629YS02163301    1.00   0.16  0.01  0.00  0.83  0.00  0.00  0.00  0.00  0.00
  YS02001633YS02163601    1.00   0.00  0.01  0.00  0.99  0.00  0.00  0.00  0.15  0.00
  YS02001641YS02001644    1.00   0.00  0.01  0.00  0.99  0.00  0.00  0.00  0.00  0.00
  YS02001644YS02001647    1.00   0.00  0.17  0.00  0.83  0.00  0.00  0.00  0.00  0.00
  YS02001647YS02001649    1.00   0.00  0.17  0.00  0.54  0.29  0.00  0.00  0.60  0.00
  YS02001649YS02001757    1.00   0.00  0.00  0.00  0.69  0.31  0.00  0.00  0.61  0.00
  YS02001652YS02001649    1.00   0.00  0.00  0.00  0.97  0.03  0.00  0.00  0.77  0.00
  YS02001655YS02001652    1.00   0.00  0.00  0.00  0.13  0.02  0.00  0.85  0.07  0.00
  YS02001658YS02001655    1.00   0.00  0.14  0.00  0.63  0.23  0.00  0.00  0.75  0.00
  YS02001661YS02001658    1.00   0.14  0.00  0.00  0.49  0.37  0.00  0.00  0.79  0.00
  YS02001664YS02001661    1.00   0.13  0.00  0.00  0.75  0.12  0.00  0.00  0.87  0.00
  YS02001745YS02001748    1.00   0.00  0.00  0.00  0.04  0.01  0.00  0.95  0.05  0.00
  YS02001748YS02001751    1.00   0.00  0.00  0.00  0.80  0.20  0.00  0.00  0.80  0.00
  YS02001751YS02001754    1.00   0.00  0.00  0.00  0.10  0.00  0.00  0.90  0.02  0.00
  YS02001754YS02001757    1.00   0.00  0.00  0.00  1.00  0.00  0.00  0.00  0.89  0.00
  YS02001757CaochengTiaoxuchi    1.00   0.00  0.00  0.00  0.99  0.01  0.00  0.00  0.89  0.00
  YS02001759YS02001757    1.00   0.00  0.00  0.00  1.00  0.00  0.00  0.00  0.64  0.00
  YS02001762YS02001759    1.00   0.00  0.00  0.00  1.00  0.00  0.00  0.00  0.04  0.00
  YS02001765YS02001762    1.00   0.00  0.00  0.00  1.00  0.00  0.00  0.00  0.76  0.00
  YS02001767YS02001765    1.00   0.00  0.00  0.00  1.00  0.00  0.00  0.00  0.00  0.00
  YS02001770YS02001767    1.00   0.00  0.00  0.00  1.00  0.00  0.00  0.00  0.00  0.00
  YS02001774YS02001770    1.00   0.00  0.13  0.00  0.59  0.00  0.27  0.00  0.03  0.00
  YS02001779YS02001774    1.00   0.00  0.00  0.00  1.00  0.00  0.00  0.00  0.81  0.00
  YS02001783YS02001784    1.00   0.00  0.18  0.00  0.82  0.00  0.00  0.00  0.58  0.00
  YS02001784YS02001785    1.00   0.00  0.00  0.00  1.00  0.00  0.00  0.00  0.17  0.00
  YS02001786YS02001788    1.00   0.00  0.00  0.00  0.79  0.21  0.00  0.00  0.00  0.00
  YS02001788YS02001790    1.00   0.00  0.00  0.00  0.19  0.81  0.00  0.00  0.86  0.00
  YS02001790YS02001791    1.00   0.00  0.00  0.00  0.01  0.99  0.00  0.00  0.17  0.00
  YS02001791YS02001793    1.00   0.00  0.00  0.00  0.00  1.00  0.00  0.00  0.00  0.00
  YS02001793JiankangQianchi    1.00   0.00  0.00  0.00  0.99  0.00  0.00  0.00  0.98  0.00
  YS02001882YS02001884    1.00   0.15  0.01  0.00  0.84  0.00  0.00  0.00  0.00  0.00
  YS02001884YS02001887    1.00   0.06  0.05  0.00  0.89  0.00  0.00  0.00  0.00  0.00
  YS02001887YS02001890    1.00   0.00  0.00  0.00  0.97  0.00  0.03  0.00  0.00  0.00
  YS02001890YS02001895    1.00   0.00  0.16  0.00  0.83  0.00  0.00  0.00  0.00  0.00
  YS02001895YS02001898    1.00   0.17  0.00  0.00  0.82  0.00  0.01  0.00  0.00  0.00
  YS02001898YS02001901    1.00   0.17  0.00  0.00  0.83  0.00  0.00  0.00  0.01  0.00
  YS02001901YS02001904    1.00   0.17  0.00  0.00  0.83  0.00  0.00  0.00  0.00  0.00
  YS02001904YS02001907    1.00   0.00  0.16  0.00  0.83  0.00  0.00  0.00  0.00  0.00
  YS02001907YS02006553    1.00   0.00  0.02  0.00  0.98  0.00  0.00  0.00  0.00  0.00
  YS02001910YS02001907    1.00   0.00  0.00  0.00  0.97  0.00  0.00  0.03  0.12  0.00
  YS02001915YS02001910    1.00   0.00  0.00  0.00  0.97  0.03  0.00  0.00  0.16  0.00
  YS02001918YS02001915    1.00   0.00  0.01  0.00  0.98  0.02  0.00  0.00  0.79  0.00
  YS02001920YS02001918    1.00   0.00  0.01  0.00  0.99  0.00  0.00  0.00  0.00  0.00
  YS02001923YS02001920    1.00   0.00  0.00  0.00  1.00  0.00  0.00  0.00  0.96  0.00
  YS02001926YS02001923    1.00   0.00  0.07  0.00  0.03  0.00  0.90  0.00  0.00  0.00
  YS02001929YS02001926    1.00   0.00  0.13  0.00  0.87  0.00  0.00  0.00  0.85  0.00
  YS02006553YS02006556    1.00   0.01  0.00  0.00  0.99  0.00  0.00  0.00  0.03  0.00
  YS02006556YS02006558    1.00   0.00  0.00  0.00  1.00  0.00  0.00  0.00  0.00  0.00
  YS02006558YS02006561    1.00   0.18  0.00  0.00  0.02  0.80  0.00  0.00  0.20  0.00
  YS02006561YS02001783    1.00   0.18  0.00  0.00  0.05  0.77  0.00  0.00  0.73  0.00
  YS02163301YS02001633    1.00   0.00  0.15  0.00  0.85  0.00  0.00  0.00  0.00  0.00
  YS02163601YS02164001    1.00   0.00  0.08  0.00  0.92  0.00  0.00  0.00  0.00  0.00
  YS02164001YS02001641    1.00   0.01  0.07  0.00  0.92  0.00  0.00  0.00  0.06  0.00
  
  
  *************************
  Conduit Surcharge Summary
  *************************
  
  ----------------------------------------------------------------------------
                                                           Hours        Hours 
                         --------- Hours Full --------   Above Full   Capacity
  Conduit                Both Ends  Upstream  Dnstream   Normal Flow   Limited
  ----------------------------------------------------------------------------
  WS02003072WS02003073        0.01      0.01      0.01      1.33         0.01
  WS02004403WS02004404        0.01      0.01      0.05      0.01         0.01
  WS02004404WS02004405        0.01      0.05      0.01      1.84         0.01
  WS02004405WS02004406        0.01      0.01      0.01      0.78         0.01
  WS02006109WS02006110        0.87      0.87      1.18      0.90         0.01
  WS02006110WS02006113        0.01      0.01      1.18      0.01         0.01
  WS02006111WS02006112        0.01      0.01      1.25      0.01         0.01
  WS02006112WS02006115        0.01      0.01      0.87      0.01         0.01
  WS02006228WS02006109        1.17      1.19      1.17      1.35         1.16
  WS02006229WS02006228        1.16      1.17      1.16      1.24         1.16
  WS02006230WS02006229        1.20      1.22      1.20      2.57         1.20
  WS02006231WS02006230        0.88      0.88      0.92      2.19         0.01
  WS02006232WS02006231        0.91      0.91      1.19      0.94         0.01
  WS02006234WS02006232        1.16      1.16      1.19      0.93         0.94
  WS02006235WS02006234        1.02      1.02      1.16      1.91         0.01
  WS02006238WS02006235        1.17      1.17      1.19      0.01         0.01
  WS02006239WS02006238        1.18      1.19      1.18      1.19         1.08
  WS02006240WS02006239        1.17      1.17      1.17      1.19         1.05
  WS02006242WS02006240        1.17      1.17      1.19      1.27         0.01
  WS02006243WS02006242        1.16      1.16      1.18      0.01         0.02
  WS02006245WS02006243        1.16      1.16      1.16      0.34         0.33
  WS02006247WS02006245        1.16      1.16      1.16      1.42         1.15
  WS02006248WS02006247        1.15      1.15      1.16      0.01         0.01
  WS02006249WS02006248        1.15      1.15      1.15      1.38         0.01
  WS02006251WS02006249        1.15      1.15      1.15      1.31         1.13
  WS02006252WS02006251        1.40      1.40      1.40      1.41         0.01
  WS02006256WS02006235        2.02      2.05      4.16      1.34         0.01
  YS02001580YS02001583        0.27      0.27      0.33      0.01         0.01
  YS02001583YS02001586        0.28      0.28      0.44      0.01         0.01
  YS02001586YS02001590        0.45      0.45      0.51      0.01         0.01
  YS02001590YS02001593        0.51      0.51      0.52      0.56         0.01
  YS02001593YS02001596        0.51      0.51      0.60      0.01         0.01
  YS02001596YS02001600        0.63      0.63      0.72      0.01         0.01
  YS02001600YS02001601        0.78      0.78      1.10      0.01         0.01
  YS02001601YS02001602        0.96      0.96      1.16      0.74         0.01
  YS02001602YS02001605        0.90      0.90      0.96      1.95         0.01
  YS02001605YS02001607        0.86      0.90      0.86      1.04         0.86
  YS02001607YS02001610        0.46      0.46      0.49      0.01         0.01
  YS02001610YS02001613        0.46      0.46      0.49      0.01         0.01
  YS02001613YS02001616        0.42      0.42      0.46      0.01         0.01
  YS02001616YS02001619        0.40      0.40      0.42      0.01         0.01
  YS02001619YS02001622        0.40      0.40      0.40      0.54         0.38
  YS02001622YS02001625        0.40      0.40      0.56      0.01         0.01
  YS02001625YS02001629        0.34      0.34      0.56      0.01         0.01
  YS02001629YS02163301        0.55      0.55      0.56      0.24         0.22
  YS02001633YS02163601        0.58      0.58      0.60      0.42         0.42
  YS02001641YS02001644        0.48      0.52      0.48      1.23         0.48
  YS02001644YS02001647        0.27      0.27      0.48      0.03         0.01
  YS02001647YS02001649        0.27      0.27      0.38      0.01         0.01
  YS02001649YS02001757        0.37      0.38      0.43      0.20         0.16
  YS02001652YS02001649        0.19      0.19      0.38      0.01         0.01
  YS02001655YS02001652        0.01      0.01      0.15      0.01         0.01
  YS02001751YS02001754        0.01      0.01      0.01      0.01         0.01
  YS02001754YS02001757        0.03      0.03      0.43      0.01         0.01
  YS02001757CaochengTiaoxuchi        0.39      0.43      0.89      0.18         0.12
  YS02001759YS02001757        0.32      0.32      0.43      0.01         0.01
  YS02001762YS02001759        0.29      0.29      0.32      0.01         0.01
  YS02001765YS02001762        0.24      0.24      0.29      0.01         0.01
  YS02001767YS02001765        0.20      0.20      0.24      0.01         0.01
  YS02001770YS02001767        0.20      0.21      0.20      0.30         0.12
  YS02001774YS02001770        0.17      0.17      0.28      0.01         0.01
  YS02001779YS02001774        0.01      0.01      0.28      0.01         0.01
  YS02001783YS02001784        0.26      0.28      0.26      0.40         0.26
  YS02001784YS02001785        0.14      0.26      0.14      0.58         0.14
  YS02001786YS02001788        0.01      0.14      0.01      0.48         0.01
  YS02001790YS02001791        0.01      0.01      0.01      0.24         0.01
  YS02001793JiankangQianchi        0.01      0.01      7.70      0.01         0.01
  YS02001882YS02001884        0.22      0.22      0.24      0.01         0.01
  YS02001884YS02001887        0.26      0.26      0.27      0.01         0.01
  YS02001887YS02001890        0.29      0.29      0.29      0.01         0.01
  YS02001890YS02001895        0.22      0.22      0.31      0.01         0.01
  YS02001895YS02001898        0.21      0.21      0.22      0.01         0.01
  YS02001898YS02001901        0.22      0.22      0.26      0.01         0.01
  YS02001901YS02001904        0.25      0.25      0.26      0.01         0.01
  YS02001904YS02001907        0.25      0.25      0.46      0.01         0.01
  YS02001907YS02006553        0.60      0.60      0.65      0.01         0.01
  YS02001910YS02001907        0.31      0.31      0.45      0.01         0.01
  YS02001915YS02001910        0.22      0.22      0.31      0.01         0.01
  YS02001918YS02001915        0.11      0.11      0.22      0.01         0.01
  YS02001920YS02001918        0.11      0.11      0.14      0.01         0.01
  YS02001923YS02001920        0.04      0.04      0.14      0.01         0.01
  YS02001926YS02001923        0.01      0.01      0.01      0.01         0.01
  YS02001929YS02001926        0.01      0.01      0.01      0.01         0.01
  YS02006553YS02006556        0.38      0.38      0.46      0.01         0.01
  YS02006556YS02006558        0.42      0.42      0.48      0.01         0.01
  YS02006558YS02006561        0.17      0.37      0.17      0.55         0.17
  YS02006561YS02001783        0.07      0.07      0.28      0.01         0.01
  YS02163301YS02001633        0.56      0.56      0.59      0.01         0.01
  YS02163601YS02164001        0.52      0.52      0.60      0.19         0.01
  YS02164001YS02001641        0.52      0.52      0.52      0.63         0.52
  
  
  ***************
  Pumping Summary
  ***************
  
  ---------------------------------------------------------------------------------------------------------
                                                  Min       Avg       Max     Total     Power    % Time Off
                        Percent   Number of      Flow      Flow      Flow    Volume     Usage    Pump Curve
  Pump                 Utilized   Start-Ups       LPS       LPS       LPS  10^6 ltr     Kw-hr    Low   High
  ---------------------------------------------------------------------------------------------------------
  CC-R1                   16.68          18      0.00    683.00    683.00     3.281     58.68    0.0   38.6
  CC-R2                   15.04          18      0.00    683.00    683.00     2.959     52.70    0.0   42.8
  CC-S1                   18.40          18      0.00    200.00    200.00     1.060      6.67    0.0    0.0
  CC-S2                   17.56          18      0.00    200.00    200.00     1.011      6.37    0.0    0.0
  JK-R1                    4.48           7      0.00   1000.00   1000.00     1.291     14.89    0.0    0.0
  JK-R2                    0.16           1      0.00   1000.00   1000.00     0.047      0.36    0.0    0.0
  JK-S                    16.65           9      0.00    300.00    300.00     1.439     22.40    0.0    0.0
  XR-1                    97.91           2      0.00     95.00     95.00     2.679      9.60    0.0    0.0
  XR-2                    93.94           2      0.00     95.00     95.00     2.570      8.76    0.0    0.0
  XR-3                     0.00           1      0.00     95.00     95.00     0.000      0.00    0.0    0.0
  XR-4                     0.00           1      0.00     95.00     95.00     0.000      0.00    0.0    0.0
  

  Analysis begun on:  Wed Nov  5 16:30:38 2025
  Analysis ended on:  Wed Nov  5 16:30:40 2025
  Total elapsed time: 00:00:02