
  EPA STORM WATER MANAGEMENT MODEL - VERSION 5.2 (Build 5.2.4)
  PYSWMM TOOLKIT API - VERSION v1.0 (2023-11-27)
  ------------------------------------------------------------

  WARNING 04: minimum elevation drop used for Conduit WS02004404WS02004405
  WARNING 03: negative offset ignored for Link YS02001904YS02001907
  
  ****************
  Analysis Options
  ****************
  Flow Units ............... LPS
  Process Models:
    Rainfall/Runoff ........ YES
    RDII ................... NO
    Snowmelt ............... NO
    Groundwater ............ NO
    Flow Routing ........... YES
    Ponding Allowed ........ NO
    Water Quality .......... NO
  Infiltration Method ...... HORTON
  Flow Routing Method ...... DYNWAVE
  Surcharge Method ......... EXTRAN
  Starting Date ............ 08/28/2015 08:00:00
  Ending Date .............. 08/28/2015 16:00:00
  Antecedent Dry Days ...... 8.0
  Report Time Step ......... 00:01:00
  Wet Time Step ............ 00:01:00
  Dry Time Step ............ 00:01:00
  Routing Time Step ........ 30.00 sec
  Variable Time Step ....... YES
  Maximum Trials ........... 8
  Number of Threads ........ 4
  Head Tolerance ........... 0.001500 m
  
  
  **************************        Volume         Depth
  Runoff Quantity Continuity     hectare-m            mm
  **************************     ---------       -------
  Initial LID Storage ......         0.049         1.488
  Total Precipitation ......         1.483        44.710
  Evaporation Loss .........         0.000         0.000
  Infiltration Loss ........         0.073         2.212
  Surface Runoff ...........         1.072        32.309
  Final Storage ............         0.388        11.685
  Continuity Error (%) .....        -0.017
  
  
  **************************        Volume        Volume
  Flow Routing Continuity        hectare-m      10^6 ltr
  **************************     ---------     ---------
  Dry Weather Inflow .......         0.602         6.020
  Wet Weather Inflow .......         1.072        10.717
  Groundwater Inflow .......         0.000         0.000
  RDII Inflow ..............         0.000         0.000
  External Inflow ..........         0.105         1.045
  External Outflow .........         1.573        15.729
  Flooding Loss ............         0.177         1.771
  Evaporation Loss .........         0.000         0.000
  Exfiltration Loss ........         0.000         0.000
  Initial Stored Volume ....         0.303         3.031
  Final Stored Volume ......         0.336         3.364
  Continuity Error (%) .....        -0.242
  
  
  *************************
  Highest Continuity Errors
  *************************
  Node YS02001583 (-6.46%)
  Node YS02001884 (5.23%)
  Node YS02001774 (1.68%)
  
  
  ***************************
  Time-Step Critical Elements
  ***************************
  Link WS02004404WS02004405 (49.37%)
  Link WS02006238WS02006235 (14.71%)
  Link WS02006252WS02006251 (11.64%)
  Link YS02001791YS02001793 (9.41%)
  Link WS02003066WSF200 (3.63%)
  
  
  ********************************
  Highest Flow Instability Indexes
  ********************************
  Link WS02006113WS02006111 (25)
  Link WS02006238WS02006235 (19)
  Link WS02006111WS02006112 (16)
  Link WS02006110WS02006113 (14)
  Link WS02006252WS02006251 (14)
  
  
  *********************************
  Most Frequent Nonconverging Nodes
  *********************************
  Node CC-1 (11.19%)
  Node CC-2 (11.19%)
  Node JK-1 (11.19%)
  Node JK-2 (11.19%)
  Node WSC (11.19%)
  
  
  *************************
  Routing Time Step Summary
  *************************
  Minimum Time Step           :     0.02 sec
  Average Time Step           :     3.69 sec
  Maximum Time Step           :     7.04 sec
  % of Time in Steady State   :     0.00
  Average Iterations per Step :     3.00
  % of Steps Not Converging   :    11.19
  Time Step Frequencies       :
     30.000 - 13.228 sec      :     0.00 %
     13.228 -  5.833 sec      :    34.40 %
      5.833 -  2.572 sec      :    22.15 %
      2.572 -  1.134 sec      :    27.04 %
      1.134 -  0.500 sec      :    16.41 %
  
  
  ***************************
  Subcatchment Runoff Summary
  ***************************
  
  ------------------------------------------------------------------------------------------------------------------------------
                            Total      Total      Total      Total     Imperv       Perv      Total       Total     Peak  Runoff
                           Precip      Runon       Evap      Infil     Runoff     Runoff     Runoff      Runoff   Runoff   Coeff
  Subcatchment                 mm         mm         mm         mm         mm         mm         mm    10^6 ltr      LPS
  ------------------------------------------------------------------------------------------------------------------------------
  sub60                     44.71       0.00       0.00       1.32      29.44       2.82      32.26        0.42   300.43   0.722
  sub61                     44.71       0.00       0.00       2.02      29.41       4.19      33.60        0.62   436.75   0.752
  sub62                     44.71       0.00       0.00       0.90      31.35       1.92      33.27        0.91   595.55   0.744
  sub63                     44.71       0.00       0.00       3.72      25.19       6.90      32.09        0.73   486.20   0.718
  sub64                     44.71       0.00       0.00       1.78      28.68       3.44      32.12        0.77   483.68   0.718
  sub65                     44.71       0.00       0.00       1.64      30.95       3.14      34.09        0.94   563.87   0.762
  sub66                     44.71       0.00       0.00       4.34      24.34       5.94      30.29        1.41   715.11   0.677
  sub67                     44.71       0.00       0.00       0.89      32.15       1.99      34.14        0.64   469.62   0.764
  sub68                     44.71       0.00       0.00       1.55      28.39       3.22      31.60        0.87   592.88   0.707
  sub69                     44.71       0.00       0.00       1.40      30.04       3.91      33.95        1.26   731.37   0.759
  sub70                     44.71       0.00       0.00       4.73      24.05       7.72      31.77        0.92   413.57   0.711
  sub71                     44.71       0.00       0.00       0.83      28.47       1.73      30.21        0.79   491.04   0.676
  sub72                     44.71       0.00       0.00       0.79      30.75       1.60      32.35        0.44   251.09   0.724
  

  ***********************
  LID Performance Summary
  ***********************

  --------------------------------------------------------------------------------------------------------------------
                                         Total      Evap     Infil   Surface    Drain    Initial     Final  Continuity
                                        Inflow      Loss      Loss   Outflow   Outflow   Storage   Storage       Error
  Subcatchment      LID Control             mm        mm        mm        mm        mm        mm        mm           %
  --------------------------------------------------------------------------------------------------------------------
  sub60             GreenRoof            44.71      0.00      0.00      0.00      0.00      7.05     51.76       -0.00
  sub61             GreenRoof            44.71      0.00      0.00      0.00      0.00      7.05     51.76       -0.00
  sub62             GreenRoof            44.71      0.00      0.00      0.00      0.00      7.05     51.76       -0.00
  sub63             GreenRoof            44.71      0.00      0.00      0.00      0.00      7.05     51.76       -0.00
  sub64             GreenRoof            44.71      0.00      0.00      0.00      0.00      7.05     51.76       -0.00
  sub65             GreenRoof            44.71      0.00      0.00      0.00      0.00      7.05     51.76       -0.00
  sub66             GreenRoof            44.71      0.00      0.00      0.00      0.00      7.05     51.76       -0.00
  sub67             GreenRoof            44.71      0.00      0.00      0.00      0.00      7.05     51.76       -0.00
  sub68             GreenRoof            44.71      0.00      0.00      0.00      0.00      7.05     51.76       -0.00
  sub69             GreenRoof            44.71      0.00      0.00      0.00      0.00      7.05     51.76       -0.00
  sub70             GreenRoof            44.71      0.00      0.00      0.00      0.00      7.05     51.76       -0.00
  sub71             GreenRoof            44.71      0.00      0.00      0.00      0.00      7.05     51.76       -0.00
  sub72             GreenRoof            44.71      0.00      0.00      0.00      0.00      7.05     51.76       -0.00
  
  ******************
  Node Depth Summary
  ******************
  
  ---------------------------------------------------------------------------------
                                 Average  Maximum  Maximum  Time of Max    Reported
                                   Depth    Depth      HGL   Occurrence   Max Depth
  Node                 Type       Meters   Meters   Meters  days hr:min      Meters
  ---------------------------------------------------------------------------------
  WS02001211           JUNCTION     0.60     0.64     5.48     0  02:55        0.64
  WS02001212           JUNCTION     0.33     0.38     5.45     0  02:42        0.38
  WS02001213           JUNCTION     0.52     0.65     5.41     0  02:41        0.65
  WS02003059           JUNCTION     0.58     0.72     5.40     0  02:41        0.72
  WS02003060           JUNCTION     0.29     0.45     5.38     0  02:40        0.45
  WS02003066           JUNCTION     0.15     0.30     5.85     0  02:40        0.30
  WS02003067           JUNCTION     0.41     0.70     6.02     0  02:39        0.70
  WS02003069           JUNCTION     0.32     0.51     5.10     0  02:41        0.51
  WS02003072           JUNCTION     0.39     0.58     4.95     0  02:42        0.58
  WS02003073           JUNCTION     0.23     0.35     4.41     0  02:54        0.35
  WS02004138           JUNCTION     0.13     0.14     7.39     0  00:29        0.14
  WS02004139           JUNCTION     0.54     0.58     5.49     0  02:44        0.58
  WS02004401           JUNCTION     0.50     0.85     6.85     0  02:37        0.85
  WS02004402           JUNCTION     0.53     0.88     6.84     0  02:37        0.88
  WS02004403           JUNCTION     0.55     0.89     6.82     0  02:38        0.89
  WS02004404           JUNCTION     0.63     0.96     6.81     0  02:38        0.96
  WS02004405           JUNCTION     0.63     0.96     6.81     0  02:38        0.96
  WS02004406           JUNCTION     0.64     0.96     6.79     0  02:38        0.96
  WS02004407           JUNCTION     0.12     0.30     6.61     0  02:38        0.30
  WS02004409           JUNCTION     0.28     0.67     6.44     0  02:38        0.67
  WS02004410           JUNCTION     0.31     0.68     6.40     0  02:38        0.68
  WS02004411           JUNCTION     0.34     0.69     6.37     0  02:39        0.69
  WS02004412           JUNCTION     0.36     0.70     6.34     0  02:39        0.70
  WS02004413           JUNCTION     0.52     0.86     6.33     0  02:39        0.86
  WS02006109           JUNCTION     0.56     1.06     7.68     0  02:12        1.06
  WS02006110           JUNCTION     0.56     1.04     7.63     0  03:16        0.99
  WS02006111           JUNCTION     0.13     0.29     6.99     0  02:19        0.29
  WS02006112           JUNCTION     0.64     1.07     6.95     0  02:23        1.06
  WS02006113           JUNCTION     0.20     0.46     7.35     0  02:45        0.46
  WS02006115           JUNCTION     0.38     0.75     6.89     0  02:37        0.75
  WS02006116           JUNCTION     0.47     0.83     6.87     0  02:37        0.83
  WS02006228           JUNCTION     0.55     1.10     7.75     0  03:16        1.10
  WS02006229           JUNCTION     0.52     1.10     7.80     0  03:16        1.08
  WS02006230           JUNCTION     0.52     1.22     7.96     0  03:15        1.16
  WS02006231           JUNCTION     0.33     0.95     8.07     0  03:15        0.91
  WS02006232           JUNCTION     0.45     1.34     8.38     0  03:20        1.14
  WS02006234           JUNCTION     0.38     1.54     8.70     0  03:20        1.24
  WS02006235           JUNCTION     0.43     1.52     8.69     0  03:20        1.38
  WS02006238           JUNCTION     0.45     1.52     8.67     0  03:20        1.43
  WS02006239           JUNCTION     0.41     1.49     8.70     0  03:20        1.44
  WS02006240           JUNCTION     0.39     1.42     8.71     0  03:20        1.41
  WS02006242           JUNCTION     0.44     1.46     8.73     0  03:16        1.46
  WS02006243           JUNCTION     0.37     1.33     8.75     0  03:16        1.33
  WS02006245           JUNCTION     0.37     1.26     8.74     0  03:16        1.26
  WS02006247           JUNCTION     0.38     1.23     8.73     0  03:16        1.23
  WS02006248           JUNCTION     0.35     1.10     8.69     0  02:36        1.10
  WS02006249           JUNCTION     0.38     1.09     8.69     0  02:10        1.09
  WS02006251           JUNCTION     0.37     1.38     9.05     0  02:11        1.13
  WS02006252           JUNCTION     0.25     1.50     9.74     0  00:00        0.70
  WS02006256           JUNCTION     1.09     2.35     9.28     0  00:00        2.35
  WSF200               JUNCTION     0.12     0.31     5.54     0  02:40        0.31
  YS02001580           JUNCTION     0.07     1.05     9.59     0  02:09        0.99
  YS02001583           JUNCTION     0.10     1.05     9.55     0  02:09        0.93
  YS02001586           JUNCTION     0.19     1.13     9.30     0  02:09        1.13
  YS02001590           JUNCTION     0.29     1.40     9.26     0  02:07        1.37
  YS02001593           JUNCTION     0.22     1.35     9.21     0  02:09        1.29
  YS02001596           JUNCTION     0.32     1.69     9.11     0  02:09        1.66
  YS02001600           JUNCTION     0.41     1.87     9.00     0  02:09        1.86
  YS02001601           JUNCTION     0.60     2.06     8.90     0  02:09        2.06
  YS02001602           JUNCTION     0.51     1.87     8.77     0  02:09        1.87
  YS02001605           JUNCTION     0.46     1.78     8.68     0  02:09        1.77
  YS02001607           JUNCTION     0.44     1.65     8.49     0  02:17        1.64
  YS02001610           JUNCTION     0.48     1.68     8.48     0  02:09        1.68
  YS02001613           JUNCTION     0.44     1.67     8.51     0  02:12        1.67
  YS02001616           JUNCTION     0.37     1.61     8.52     0  02:12        1.61
  YS02001619           JUNCTION     0.35     1.60     8.53     0  02:12        1.60
  YS02001622           JUNCTION     0.34     1.58     8.48     0  02:12        1.58
  YS02001625           JUNCTION     0.59     1.78     8.38     0  02:09        1.78
  YS02001629           JUNCTION     0.47     1.85     8.40     0  02:09        1.85
  YS02001633           JUNCTION     0.54     2.08     8.53     0  02:12        2.08
  YS02001641           JUNCTION     0.52     1.96     8.40     0  02:13        1.90
  YS02001644           JUNCTION     0.51     1.92     8.35     0  02:13        1.92
  YS02001647           JUNCTION     0.29     1.75     8.36     0  02:11        1.66
  YS02001649           JUNCTION     0.33     1.87     8.26     0  02:14        1.80
  YS02001652           JUNCTION     0.22     1.74     8.34     0  02:13        1.59
  YS02001655           JUNCTION     0.15     1.75     8.60     0  02:13        1.34
  YS02001658           JUNCTION     0.11     1.70     8.85     0  02:13        1.12
  YS02001661           JUNCTION     0.14     0.92     8.33     0  02:14        0.87
  YS02001664           JUNCTION     0.06     0.36     8.28     0  02:14        0.28
  YS02001745           JUNCTION     0.06     0.65     8.17     0  02:14        0.59
  YS02001748           JUNCTION     0.10     1.47     8.55     0  02:14        1.02
  YS02001751           JUNCTION     0.13     1.50     8.38     0  02:14        1.36
  YS02001754           JUNCTION     0.18     1.63     8.24     0  02:14        1.51
  YS02001757           JUNCTION     0.34     1.91     8.17     0  02:14        1.82
  YS02001759           JUNCTION     0.28     1.86     8.22     0  02:14        1.81
  YS02001762           JUNCTION     0.27     1.84     8.24     0  02:14        1.83
  YS02001765           JUNCTION     0.25     1.83     8.28     0  02:14        1.82
  YS02001767           JUNCTION     0.25     2.02     8.51     0  02:12        1.85
  YS02001770           JUNCTION     0.26     1.95     8.44     0  02:12        1.93
  YS02001774           JUNCTION     0.33     2.00     8.42     0  02:14        2.00
  YS02001779           JUNCTION     0.16     1.68     8.37     0  02:12        1.68
  YS02001783           JUNCTION     0.25     1.30     7.44     0  02:12        1.24
  YS02001784           JUNCTION     0.27     1.17     7.24     0  02:12        1.12
  YS02001786           JUNCTION     0.23     0.90     6.93     0  02:12        0.88
  YS02001788           JUNCTION     0.17     0.62     6.60     0  02:13        0.62
  YS02001790           JUNCTION     0.20     0.72     6.36     0  02:16        0.72
  YS02001791           JUNCTION     0.13     0.43     5.90     0  02:15        0.43
  YS02001793           JUNCTION     0.07     0.28     5.12     0  02:17        0.28
  YS02001882           JUNCTION     0.31     1.66     8.37     0  02:12        1.59
  YS02001884           JUNCTION     0.39     1.75     8.36     0  02:12        1.70
  YS02001887           JUNCTION     0.47     1.81     8.35     0  02:12        1.78
  YS02001890           JUNCTION     0.50     1.81     8.32     0  02:12        1.81
  YS02001895           JUNCTION     0.28     1.56     8.31     0  02:13        1.56
  YS02001898           JUNCTION     0.28     1.57     8.30     0  02:13        1.56
  YS02001901           JUNCTION     0.39     1.68     8.29     0  02:13        1.67
  YS02001904           JUNCTION     0.37     1.64     8.27     0  02:13        1.64
  YS02001907           JUNCTION     0.68     1.96     8.25     0  02:12        1.96
  YS02001910           JUNCTION     0.49     1.98     8.49     0  02:12        1.83
  YS02001915           JUNCTION     0.30     1.94     8.66     0  02:12        1.68
  YS02001918           JUNCTION     0.15     1.81     8.88     0  02:12        1.38
  YS02001920           JUNCTION     0.23     2.14     9.15     0  02:13        1.46
  YS02001923           JUNCTION     0.10     2.03     9.29     0  02:13        1.23
  YS02001926           JUNCTION     0.15     1.90     9.35     0  02:13        1.11
  YS02001929           JUNCTION     0.08     1.78     9.47     0  02:13        0.93
  YS02006553           JUNCTION     0.69     1.97     8.25     0  02:13        1.97
  YS02006556           JUNCTION     0.66     1.94     8.25     0  02:13        1.94
  YS02006558           JUNCTION     0.70     1.98     8.25     0  02:12        1.98
  YS02006561           JUNCTION     0.15     0.99     7.65     0  02:12        0.91
  YS02163301           JUNCTION     0.49     1.94     8.46     0  02:12        1.94
  YS02163601           JUNCTION     0.58     2.07     8.47     0  02:12        2.07
  YS02164001           JUNCTION     0.51     1.97     8.43     0  02:13        1.95
  CC-1                 OUTFALL      0.00     0.00     0.00     0  00:00        0.00
  CC-2                 OUTFALL      0.00     0.00     0.00     0  00:00        0.00
  JK-1                 OUTFALL      0.00     0.00     0.00     0  00:00        0.00
  JK-2                 OUTFALL      0.00     0.00     0.00     0  00:00        0.00
  WSC                  OUTFALL      0.23     0.35     1.02     0  02:55        0.35
  CC-storage           STORAGE      0.78     1.49     6.99     0  02:29        1.49
  JK-storage           STORAGE      2.63     4.24     5.04     0  02:20        4.21
  XR-storage           STORAGE      7.82     9.26     7.26     0  08:00        9.26
  
  
  *******************
  Node Inflow Summary
  *******************
  
  -------------------------------------------------------------------------------------------------
                                  Maximum  Maximum                  Lateral       Total        Flow
                                  Lateral    Total  Time of Max      Inflow      Inflow     Balance
                                   Inflow   Inflow   Occurrence      Volume      Volume       Error
  Node                 Type           LPS      LPS  days hr:min    10^6 ltr    10^6 ltr     Percent
  -------------------------------------------------------------------------------------------------
  WS02001211           JUNCTION      7.35   200.68     0  03:25       0.212        5.44       0.611
  WS02001212           JUNCTION      0.00   202.62     0  03:20           0        5.41       0.290
  WS02001213           JUNCTION      0.00   204.49     0  03:31           0        5.39       0.331
  WS02003059           JUNCTION      0.00   209.46     0  03:32           0        5.38       0.592
  WS02003060           JUNCTION     16.53   750.83     0  02:40       0.476         8.7       0.161
  WS02003066           JUNCTION      0.00   536.76     0  02:40           0        2.87       0.041
  WS02003067           JUNCTION      0.00   536.70     0  02:39           0        2.88       0.139
  WS02003069           JUNCTION      0.32   751.03     0  02:40     0.00922        8.69       0.171
  WS02003072           JUNCTION      0.00   750.89     0  02:41           0        8.67       0.233
  WS02003073           JUNCTION      1.82   752.62     0  02:54      0.0524         8.7       0.239
  WS02004138           JUNCTION      0.00   380.00     0  00:00           0        5.25       0.053
  WS02004139           JUNCTION      0.32   191.16     0  00:29     0.00924        5.26       0.509
  WS02004401           JUNCTION      0.00   538.94     0  02:37           0        2.97       0.332
  WS02004402           JUNCTION      0.00   537.79     0  02:37           0        2.96       0.339
  WS02004403           JUNCTION      0.00   537.93     0  02:37           0        2.95       0.333
  WS02004404           JUNCTION      0.16   537.52     0  02:37     0.00467        2.95       0.287
  WS02004405           JUNCTION      0.04   537.37     0  02:38      0.0011        2.94       0.407
  WS02004406           JUNCTION      0.00   537.58     0  02:38           0        2.93       0.696
  WS02004407           JUNCTION      0.00   537.27     0  02:38           0        2.91       0.032
  WS02004409           JUNCTION      0.00   537.18     0  02:38           0        2.91       0.077
  WS02004410           JUNCTION      0.00   537.08     0  02:38           0        2.91       0.133
  WS02004411           JUNCTION      0.00   536.99     0  02:39           0         2.9       0.175
  WS02004412           JUNCTION      0.00   536.97     0  02:39           0         2.9       0.240
  WS02004413           JUNCTION      0.00   536.93     0  02:39           0        2.89       0.433
  WS02006109           JUNCTION      1.23   550.06     0  03:16      0.0354        3.02       0.269
  WS02006110           JUNCTION      0.00   553.13     0  03:16           0        3.01       0.211
  WS02006111           JUNCTION      0.00   560.71     0  02:52           0           3       0.024
  WS02006112           JUNCTION      0.00   542.59     0  02:37           0           3       0.576
  WS02006113           JUNCTION      0.00   565.46     0  03:16           0           3       0.051
  WS02006115           JUNCTION      0.00   548.12     0  02:36           0        2.99       0.207
  WS02006116           JUNCTION      0.00   540.29     0  02:37           0        2.98       0.152
  WS02006228           JUNCTION      0.00   546.67     0  03:16           0        2.99       0.116
  WS02006229           JUNCTION      0.00   547.54     0  03:16           0        2.99       0.130
  WS02006230           JUNCTION     10.28   579.92     0  03:15       0.296           3       0.188
  WS02006231           JUNCTION      0.00   565.30     0  03:15           0         2.7      -0.082
  WS02006232           JUNCTION      0.00   564.55     0  03:15           0        2.71       0.247
  WS02006234           JUNCTION      0.00   560.24     0  03:15           0         2.7      -0.210
  WS02006235           JUNCTION      0.00   556.60     0  03:15           0        2.73       0.197
  WS02006238           JUNCTION      0.00   417.72     0  03:12           0         1.8      -0.182
  WS02006239           JUNCTION      0.00   418.71     0  03:16           0        1.78      -0.064
  WS02006240           JUNCTION      0.00   417.16     0  03:16           0        1.76      -0.069
  WS02006242           JUNCTION      0.00   417.65     0  03:16           0        1.74      -0.200
  WS02006243           JUNCTION      0.00   418.04     0  03:16           0        1.74      -0.131
  WS02006245           JUNCTION      0.00   418.25     0  03:16           0        1.75       0.551
  WS02006247           JUNCTION      0.00   417.35     0  03:16           0        1.75      -0.064
  WS02006248           JUNCTION      0.00   418.07     0  03:16           0        1.75      -0.202
  WS02006249           JUNCTION      0.00   458.97     0  00:00           0        2.02       0.690
  WS02006251           JUNCTION      0.08   404.92     0  03:15     0.00222        2.02       0.012
  WS02006252           JUNCTION      0.00   400.00     0  00:00           0        2.01      -0.345
  WS02006256           JUNCTION      0.00   300.00     0  00:00           0         1.4      -0.339
  WSF200               JUNCTION      0.00   536.80     0  02:40           0        2.87       0.017
  YS02001580           JUNCTION      0.00   112.68     0  02:09           0     0.00404      -4.557
  YS02001583           JUNCTION      0.00   185.81     0  02:09           0      0.0147      -6.064
  YS02001586           JUNCTION    413.57   413.75     0  02:15       0.918        0.93       0.144
  YS02001590           JUNCTION      0.00   318.14     0  02:18           0       0.876      -0.042
  YS02001593           JUNCTION      0.00   318.23     0  02:18           0       0.876       0.005
  YS02001596           JUNCTION      0.00   317.88     0  02:18           0       0.876      -0.014
  YS02001600           JUNCTION      0.00   317.97     0  02:18           0       0.876       0.018
  YS02001601           JUNCTION    731.37  1049.16     0  02:14        1.26        2.13       0.030
  YS02001602           JUNCTION      0.00   520.64     0  02:09           0        1.66       0.017
  YS02001605           JUNCTION      0.00   521.71     0  02:09           0        1.61       0.025
  YS02001607           JUNCTION      0.00   523.20     0  02:09           0        1.61       0.120
  YS02001610           JUNCTION      0.00   527.36     0  02:09           0        1.61       0.139
  YS02001613           JUNCTION      0.00   530.24     0  02:09           0         1.5       0.105
  YS02001616           JUNCTION      0.00   531.68     0  02:09           0         1.5       0.032
  YS02001619           JUNCTION    715.11   935.76     0  02:11        1.41        2.91       0.003
  YS02001622           JUNCTION      0.00   936.77     0  02:11           0        2.91      -0.008
  YS02001625           JUNCTION      0.00   938.82     0  02:09           0        2.91       0.305
  YS02001629           JUNCTION      0.00   940.04     0  02:09           0        2.67       0.014
  YS02001633           JUNCTION    564.07  1395.46     0  02:11       0.944        3.61       0.091
  YS02001641           JUNCTION      0.00  1390.86     0  02:11           0        3.61       0.070
  YS02001644           JUNCTION    483.72  1805.23     0  02:11       0.773        4.38       0.071
  YS02001647           JUNCTION      0.00  1816.86     0  02:11           0        4.37       0.006
  YS02001649           JUNCTION      0.00  2033.45     0  02:11           0         5.1       0.007
  YS02001652           JUNCTION      0.00   593.42     0  02:15           0       0.734      -0.108
  YS02001655           JUNCTION      0.15   593.59     0  02:15     0.00443       0.734      -0.004
  YS02001658           JUNCTION      0.00   688.52     0  02:13           0       0.728      -0.061
  YS02001661           JUNCTION      0.00   604.54     0  02:14           0       0.729       0.053
  YS02001664           JUNCTION    486.20   486.20     0  02:13       0.728       0.728      -0.014
  YS02001745           JUNCTION    300.44   328.66     0  02:13       0.424       0.424       0.340
  YS02001748           JUNCTION      0.04   541.98     0  02:14      0.0013       0.426      -0.548
  YS02001751           JUNCTION      0.01   424.85     0  02:16    0.000317       0.436       0.066
  YS02001754           JUNCTION      0.26   352.65     0  02:16     0.00749       0.452      -0.259
  YS02001757           JUNCTION      0.00  3032.71     0  02:14           0        7.09       0.017
  YS02001759           JUNCTION    436.79  1102.91     0  02:12       0.618        1.55      -0.022
  YS02001762           JUNCTION      0.00   662.73     0  02:12           0       0.931       0.006
  YS02001765           JUNCTION      0.00   652.18     0  02:12           0       0.929       0.021
  YS02001767           JUNCTION      0.54   643.06     0  02:12      0.0154       0.928       0.013
  YS02001770           JUNCTION    595.70   634.38     0  02:13       0.916       0.958      -0.013
  YS02001774           JUNCTION      0.00   467.26     0  02:12           0      0.0637       1.705
  YS02001779           JUNCTION      0.01   477.28     0  02:12    0.000144      0.0205      -4.697
  YS02001783           JUNCTION      0.00  1148.54     0  02:13           0        2.65       0.009
  YS02001784           JUNCTION      1.06  1150.24     0  02:13      0.0305        2.68       0.019
  YS02001786           JUNCTION      0.06  1149.47     0  02:13     0.00162        2.68       0.024
  YS02001788           JUNCTION      0.07  1149.47     0  02:13     0.00204        2.68       0.010
  YS02001790           JUNCTION      0.15  1162.63     0  02:13     0.00446        2.68       0.023
  YS02001791           JUNCTION      0.00  1275.70     0  02:16           0        2.68      -0.013
  YS02001793           JUNCTION      0.00  1226.99     0  02:17           0        2.68       0.008
  YS02001882           JUNCTION      0.00    55.35     0  02:11           0      0.0123       5.483
  YS02001884           JUNCTION      0.00    71.81     0  02:11           0      0.0478       5.518
  YS02001887           JUNCTION    470.07   471.81     0  02:12       0.648       0.681       0.661
  YS02001890           JUNCTION      0.00   473.15     0  02:12           0        0.64       0.798
  YS02001895           JUNCTION      0.00   473.11     0  02:13           0       0.635       0.200
  YS02001898           JUNCTION      0.00   474.54     0  02:13           0       0.634       0.078
  YS02001901           JUNCTION      0.00   476.83     0  02:13           0       0.636       0.513
  YS02001904           JUNCTION      0.00   475.60     0  02:13           0        0.64       0.430
  YS02001907           JUNCTION      0.00  1392.87     0  02:14           0        1.95       0.937
  YS02001910           JUNCTION      0.00   950.27     0  02:14           0        1.32       0.541
  YS02001915           JUNCTION    491.06   949.31     0  02:14        0.79        1.36       0.099
  YS02001918           JUNCTION      0.00   461.03     0  02:14           0       0.598       0.022
  YS02001920           JUNCTION      2.87   460.28     0  02:14      0.0827        0.58       0.133
  YS02001923           JUNCTION      0.04   414.92     0  02:13     0.00109       0.481      -0.262
  YS02001926           JUNCTION      0.05   693.67     0  02:13      0.0015       0.462       0.028
  YS02001929           JUNCTION    251.09   510.80     0  02:13       0.445       0.448      -0.113
  YS02006553           JUNCTION      0.00   789.06     0  02:20           0         1.8       0.648
  YS02006556           JUNCTION      0.00   788.74     0  02:20           0         1.8       0.438
  YS02006558           JUNCTION    593.76  1164.25     0  02:12       0.895        2.67       0.132
  YS02006561           JUNCTION      0.00  1168.42     0  02:12           0        2.65      -0.005
  YS02163301           JUNCTION      0.00   937.59     0  02:11           0        2.67       0.052
  YS02163601           JUNCTION      0.11  1394.46     0  02:11     0.00317        3.61       0.132
  YS02164001           JUNCTION      0.00  1393.15     0  02:11           0        3.61       0.056
  CC-1                 OUTFALL       0.00   683.00     0  00:00           0        3.01       0.000
  CC-2                 OUTFALL       0.00   683.00     0  00:00           0        2.79       0.000
  JK-1                 OUTFALL       0.00  1000.00     0  00:00           0         1.2       0.000
  JK-2                 OUTFALL       0.00  1000.00     0  00:00           0      0.0484       0.000
  WSC                  OUTFALL       0.00   752.60     0  02:55           0        8.68       0.000
  CC-storage           STORAGE       0.00  3035.29     0  02:14           0        9.31      -0.254
  JK-storage           STORAGE       0.00  1206.71     0  02:17           0        2.83       0.213
  XR-storage           STORAGE     200.00   200.00     0  00:00        5.76        6.36       0.001
  
  
  **********************
  Node Surcharge Summary
  **********************
  
  Surcharging occurs when water rises above the top of the highest conduit.
  ---------------------------------------------------------------------
                                               Max. Height   Min. Depth
                                   Hours       Above Crown    Below Rim
  Node                 Type      Surcharged         Meters       Meters
  ---------------------------------------------------------------------
  WS02006109           JUNCTION        1.19          0.243        1.577
  WS02006110           JUNCTION        1.01          0.132        1.718
  WS02006112           JUNCTION        0.96          0.067        1.613
  WS02006228           JUNCTION        1.19          0.274        1.926
  WS02006229           JUNCTION        1.19          0.304        2.146
  WS02006230           JUNCTION        1.01          0.138        1.432
  WS02006231           JUNCTION        1.03          0.240        1.290
  WS02006232           JUNCTION        1.24          0.643        0.837
  WS02006234           JUNCTION        1.15          0.819        0.421
  WS02006235           JUNCTION        1.19          0.814        0.476
  WS02006238           JUNCTION        1.21          0.802        0.628
  WS02006239           JUNCTION        1.18          0.747        0.543
  WS02006240           JUNCTION        1.18          0.710        0.680
  WS02006242           JUNCTION        1.19          0.735        0.085
  WS02006243           JUNCTION        1.17          0.618        0.152
  WS02006245           JUNCTION        1.16          0.549        0.301
  WS02006247           JUNCTION        1.16          0.518        0.242
  WS02006248           JUNCTION        1.15          0.380        0.000
  WS02006249           JUNCTION        1.15          0.390        0.000
  WS02006251           JUNCTION        1.05          0.354        0.826
  WS02006252           JUNCTION        1.31          1.100        0.000
  WS02006256           JUNCTION        3.05          2.050        0.000
  YS02001580           JUNCTION        0.29          0.450        0.000
  YS02001583           JUNCTION        0.29          0.411        0.089
  YS02001586           JUNCTION        0.40          0.510        0.000
  YS02001590           JUNCTION        0.46          0.750        0.000
  YS02001593           JUNCTION        0.46          0.726        0.114
  YS02001596           JUNCTION        0.56          0.960        0.110
  YS02001600           JUNCTION        0.67          1.190        0.000
  YS02001601           JUNCTION        1.00          1.440        0.000
  YS02001602           JUNCTION        0.88          1.270        0.000
  YS02001605           JUNCTION        0.83          1.178        0.002
  YS02001607           JUNCTION        0.43          0.645        0.035
  YS02001610           JUNCTION        0.45          0.680        0.000
  YS02001613           JUNCTION        0.43          0.666        0.034
  YS02001616           JUNCTION        0.39          0.610        0.000
  YS02001619           JUNCTION        0.38          0.601        0.009
  YS02001622           JUNCTION        0.38          0.578        0.042
  YS02001625           JUNCTION        0.52          0.780        0.000
  YS02001629           JUNCTION        0.35          0.470        0.000
  YS02001633           JUNCTION        0.54          1.058        0.002
  YS02001641           JUNCTION        0.48          0.962        0.138
  YS02001644           JUNCTION        0.44          0.920        0.000
  YS02001647           JUNCTION        0.29          0.754        0.146
  YS02001649           JUNCTION        0.37          0.870        0.180
  YS02001652           JUNCTION        0.23          0.713        0.417
  YS02001655           JUNCTION        0.13          0.747        0.453
  YS02001658           JUNCTION        0.03          0.703        0.597
  YS02001748           JUNCTION        0.01          0.392        0.798
  YS02001751           JUNCTION        0.06          0.499        0.701
  YS02001754           JUNCTION        0.16          0.584        0.566
  YS02001757           JUNCTION        0.41          0.908        0.302
  YS02001759           JUNCTION        0.33          0.857        0.353
  YS02001762           JUNCTION        0.31          0.837        0.313
  YS02001765           JUNCTION        0.28          0.826        0.274
  YS02001767           JUNCTION        0.26          1.020        0.010
  YS02001770           JUNCTION        0.24          0.920        0.000
  YS02001774           JUNCTION        0.29          0.998        0.052
  YS02001779           JUNCTION        0.16          0.680        0.000
  YS02001783           JUNCTION        0.27          0.496        1.104
  YS02001784           JUNCTION        0.26          0.369        1.121
  YS02001786           JUNCTION        0.17          0.100        1.330
  YS02001882           JUNCTION        0.23          0.657        0.173
  YS02001884           JUNCTION        0.24          0.685        0.185
  YS02001887           JUNCTION        0.27          0.761        0.189
  YS02001890           JUNCTION        0.28          0.760        0.000
  YS02001895           JUNCTION        0.22          0.564        0.186
  YS02001898           JUNCTION        0.22          0.540        0.200
  YS02001901           JUNCTION        0.26          0.678        0.192
  YS02001904           JUNCTION        0.25          0.639        0.211
  YS02001907           JUNCTION        0.45          0.950        0.000
  YS02001910           JUNCTION        0.30          0.979        0.121
  YS02001915           JUNCTION        0.23          0.943        0.057
  YS02001918           JUNCTION        0.16          0.810        0.000
  YS02001920           JUNCTION        0.17          1.140        0.000
  YS02001923           JUNCTION        0.01          0.820        0.000
  YS02001926           JUNCTION        0.01          0.900        0.000
  YS02001929           JUNCTION        0.01          0.780        0.000
  YS02006553           JUNCTION        0.46          0.970        0.220
  YS02006556           JUNCTION        0.37          0.901        0.449
  YS02006558           JUNCTION        0.36          0.883        0.517
  YS02006561           JUNCTION        0.12          0.195        0.955
  YS02163301           JUNCTION        0.52          0.943        0.087
  YS02163601           JUNCTION        0.56          1.067        0.013
  YS02164001           JUNCTION        0.49          0.970        0.130
  
  
  *********************
  Node Flooding Summary
  *********************
  
  Flooding refers to all water that overflows a node, whether it ponds or not.
  --------------------------------------------------------------------------
                                                             Total   Maximum
                                 Maximum   Time of Max       Flood    Ponded
                        Hours       Rate    Occurrence      Volume     Depth
  Node                 Flooded       LPS   days hr:min    10^6 ltr    Meters
  --------------------------------------------------------------------------
  WS02006248              0.01      5.76      0  03:16       0.000     0.000
  WS02006249              1.04    115.15      0  02:10       0.263     0.000
  WS02006252              0.01    271.55      0  03:20       0.000     0.000
  WS02006256              1.29    293.19      0  00:00       0.448     0.000
  YS02001580              0.01     91.44      0  02:09       0.000     0.000
  YS02001586              0.20    107.96      0  02:10       0.041     0.000
  YS02001590              0.01     37.04      0  02:07       0.000     0.000
  YS02001600              0.01      2.66      0  02:09       0.000     0.000
  YS02001601              0.35    651.12      0  02:14       0.471     0.000
  YS02001602              0.27     62.07      0  02:22       0.050     0.000
  YS02001610              0.21    220.68      0  02:16       0.110     0.000
  YS02001616              0.01      0.76      0  02:12       0.000     0.000
  YS02001625              0.19    705.54      0  02:15       0.230     0.000
  YS02001629              0.03     83.41      0  02:09       0.003     0.000
  YS02001644              0.01     42.42      0  02:14       0.001     0.000
  YS02001770              0.01    231.87      0  02:12       0.000     0.000
  YS02001779              0.01    395.32      0  02:12       0.003     0.000
  YS02001890              0.01     16.99      0  02:12       0.000     0.000
  YS02001907              0.11    828.92      0  02:14       0.144     0.000
  YS02001918              0.01    157.29      0  02:13       0.002     0.000
  YS02001920              0.01     29.24      0  02:13       0.000     0.000
  YS02001923              0.01     87.23      0  02:13       0.000     0.000
  YS02001926              0.01    169.64      0  02:13       0.001     0.000
  YS02001929              0.01    148.14      0  02:13       0.000     0.000
  
  
  **********************
  Storage Volume Summary
  **********************
  
  ------------------------------------------------------------------------------------------------
                         Average    Avg   Evap  Exfil     Maximum    Max    Time of Max    Maximum
                          Volume   Pcnt   Pcnt   Pcnt      Volume   Pcnt     Occurrence    Outflow
  Storage Unit           1000 m³   Full   Loss   Loss     1000 m³   Full    days hr:min        LPS
  ------------------------------------------------------------------------------------------------
  CC-storage               2.175   33.9    0.0    0.0       4.142   64.6       0  02:29    1783.53
  JK-storage               0.132   45.4    0.0    0.0       0.213   73.1       0  02:20    2300.00
  XR-storage               0.938   65.2    0.0    0.0       1.111   77.2       0  08:00     380.00
  
  
  ***********************
  Outfall Loading Summary
  ***********************
  
  -----------------------------------------------------------
                         Flow       Avg       Max       Total
                         Freq      Flow      Flow      Volume
  Outfall Node           Pcnt       LPS       LPS    10^6 ltr
  -----------------------------------------------------------
  CC-1                  26.72    683.00    683.00       3.012
  CC-2                  24.55    683.00    683.00       2.789
  JK-1                   9.66   1000.00   1000.00       1.197
  JK-2                   0.27   1000.00   1000.00       0.048
  WSC                   99.92    360.25    752.60       8.683
  -----------------------------------------------------------
  System                32.23   3726.25   3366.23      15.729
  
  
  ********************
  Link Flow Summary
  ********************
  
  -----------------------------------------------------------------------------
                                 Maximum  Time of Max   Maximum    Max/    Max/
                                  |Flow|   Occurrence   |Veloc|    Full    Full
  Link                 Type          LPS  days hr:min     m/sec    Flow   Depth
  -----------------------------------------------------------------------------
  1                    CONDUIT    752.60     0  02:55      3.08    0.26    0.35
  WS02001211WS02001212 CONDUIT    202.62     0  03:20      0.54    0.15    0.51
  WS02001212WS02001213 CONDUIT    204.49     0  03:31      1.04    0.32    0.36
  WS02001213WS02003059 CONDUIT    209.46     0  03:32      0.47    0.35    0.67
  WS02003059WS02003060 CONDUIT    216.27     0  03:31      0.67    0.14    0.58
  WS02003060WS02003069 CONDUIT    750.71     0  02:40      1.77    0.29    0.40
  WS02003066WSF200     CONDUIT    536.80     0  02:40      2.74    0.09    0.23
  WS02003067WS02003066 CONDUIT    536.76     0  02:40      1.21    0.17    0.42
  WS02003069WS02003072 CONDUIT    750.89     0  02:41      1.51    0.36    0.45
  WS02003072WS02003073 CONDUIT    750.80     0  02:54      1.60    1.62    0.43
  WS02004138WS02004139 CONDUIT    190.84     0  00:29      2.17    0.04    0.33
  WS02004139WS02001211 CONDUIT    193.33     0  03:25      0.54    0.24    0.47
  WS02004401WS02004402 CONDUIT    537.79     0  02:37      0.97    0.65    0.86
  WS02004402WS02004403 CONDUIT    537.93     0  02:37      0.97    0.77    0.88
  WS02004403WS02004404 CONDUIT    537.35     0  02:37      0.92    0.39    0.93
  WS02004404WS02004405 CONDUIT    537.33     0  02:38      1.08    5.26    0.96
  WS02004405WS02004406 CONDUIT    537.58     0  02:38      0.99    1.06    0.96
  WS02004406WS02004407 CONDUIT    537.27     0  02:38      1.04    0.24    0.63
  WS02004407WS02004409 CONDUIT    537.18     0  02:38      1.57    0.19    0.48
  WS02004409WS02004410 CONDUIT    537.08     0  02:38      1.03    0.69    0.67
  WS02004410WS02004411 CONDUIT    536.99     0  02:39      0.95    0.73    0.69
  WS02004411WS02004412 CONDUIT    536.97     0  02:39      0.92    0.76    0.69
  WS02004412WS02004413 CONDUIT    536.93     0  02:39      0.82    0.36    0.78
  WS02004413WS02003067 CONDUIT    536.70     0  02:39      1.11    0.23    0.59
  WS02006109WS02006110 CONDUIT    553.13     0  03:16      1.10    1.06    1.00
  WS02006110WS02006113 CONDUIT    565.46     0  03:16      1.36    0.51    0.78
  WS02006111WS02006112 CONDUIT    542.59     0  02:37      1.82    0.26    0.67
  WS02006112WS02006115 CONDUIT    548.12     0  02:36      0.81    0.32    0.87
  WS02006113WS02006111 CONDUIT    560.71     0  02:52      2.47    0.67    0.46
  WS02006115WS02006116 CONDUIT    540.29     0  02:37      0.97    0.69    0.76
  WS02006116WS02004401 CONDUIT    538.94     0  02:37      0.98    0.74    0.84
  WS02006228WS02006109 CONDUIT    548.83     0  03:16      1.09    2.40    1.00
  WS02006229WS02006228 CONDUIT    546.67     0  03:16      1.15    1.81    1.00
  WS02006230WS02006229 CONDUIT    547.54     0  03:16      1.42   12.19    1.00
  WS02006231WS02006230 CONDUIT    569.64     0  03:15      1.55    8.64    1.00
  WS02006232WS02006231 CONDUIT    565.30     0  03:15      1.47    1.18    1.00
  WS02006234WS02006232 CONDUIT    564.55     0  03:15      1.47    1.14    1.00
  WS02006235WS02006234 CONDUIT    560.24     0  03:15      1.46    5.91    1.00
  WS02006238WS02006235 CONDUIT    417.78     0  03:12      1.57    0.93    1.00
  WS02006239WS02006238 CONDUIT    417.72     0  03:12      1.11    1.34    1.00
  WS02006240WS02006239 CONDUIT    418.71     0  03:16      1.24    1.32    1.00
  WS02006242WS02006240 CONDUIT    417.16     0  03:16      1.12    1.66    1.00
  WS02006243WS02006242 CONDUIT    417.65     0  03:16      1.39    0.89    1.00
  WS02006245WS02006243 CONDUIT    418.04     0  03:16      1.45    1.24    1.00
  WS02006247WS02006245 CONDUIT    418.25     0  03:16      1.44    3.32    1.00
  WS02006248WS02006247 CONDUIT    417.35     0  03:16      1.45    0.91    1.00
  WS02006249WS02006248 CONDUIT    418.07     0  03:16      1.37    2.29    1.00
  WS02006251WS02006249 CONDUIT    458.97     0  00:00      1.99    1.32    1.00
  WS02006252WS02006251 CONDUIT    404.84     0  03:15     25.11    1.49    1.00
  WS02006256WS02006235 CONDUIT    289.22     0  02:00      4.23    3.06    1.00
  WSF200WS02003060     CONDUIT    536.94     0  02:40      1.76    0.12    0.32
  YS02001580YS02001583 CONDUIT    112.68     0  02:09      0.74    0.44    1.00
  YS02001583YS02001586 CONDUIT    171.99     0  02:09      0.75    0.26    1.00
  YS02001586YS02001590 CONDUIT    318.14     0  02:18      1.27    0.56    1.00
  YS02001590YS02001593 CONDUIT    318.23     0  02:18      1.13    2.00    1.00
  YS02001593YS02001596 CONDUIT    317.88     0  02:18      1.73    0.50    1.00
  YS02001596YS02001600 CONDUIT    317.97     0  02:18      1.21    0.62    1.00
  YS02001600YS02001601 CONDUIT    318.02     0  02:18      1.12    0.55    1.00
  YS02001601YS02001602 CONDUIT    520.64     0  02:09      1.84    1.88    1.00
  YS02001602YS02001605 CONDUIT    521.71     0  02:09      1.85   11.04    1.00
  YS02001605YS02001607 CONDUIT    523.20     0  02:09      1.85    2.87    1.00
  YS02001607YS02001610 CONDUIT    527.36     0  02:09      0.67    0.50    1.00
  YS02001610YS02001613 CONDUIT    530.24     0  02:09      0.68    0.61    1.00
  YS02001613YS02001616 CONDUIT    531.68     0  02:09      0.68    0.46    1.00
  YS02001616YS02001619 CONDUIT    501.77     0  02:09      0.66    0.87    1.00
  YS02001619YS02001622 CONDUIT    936.77     0  02:11      1.20    1.38    1.00
  YS02001622YS02001625 CONDUIT    938.82     0  02:09      1.20    0.50    1.00
  YS02001625YS02001629 CONDUIT    940.04     0  02:09      1.20    0.45    1.00
  YS02001629YS02163301 CONDUIT    937.59     0  02:11      1.19    1.15    1.00
  YS02001633YS02163601 CONDUIT   1394.35     0  02:11      1.78    1.46    1.00
  YS02001641YS02001644 CONDUIT   1396.66     0  02:11      1.78    4.51    1.00
  YS02001644YS02001647 CONDUIT   1816.86     0  02:11      2.31    1.07    1.00
  YS02001647YS02001649 CONDUIT   1842.83     0  02:11      2.35    0.97    1.00
  YS02001649YS02001757 CONDUIT   2003.60     0  02:11      2.55    1.22    1.00
  YS02001652YS02001649 CONDUIT    593.93     0  02:15      0.76    0.29    1.00
  YS02001655YS02001652 CONDUIT    593.42     0  02:15      1.31    0.29    1.00
  YS02001658YS02001655 CONDUIT    593.44     0  02:15      1.94    0.25    1.00
  YS02001661YS02001658 CONDUIT    688.52     0  02:13      2.33    0.27    0.93
  YS02001664YS02001661 CONDUIT    604.54     0  02:14      2.29    0.19    0.61
  YS02001745YS02001748 CONDUIT    541.93     0  02:14      2.15    0.21    0.75
  YS02001748YS02001751 CONDUIT    424.84     0  02:16      1.69    0.21    1.00
  YS02001751YS02001754 CONDUIT    352.39     0  02:16      1.45    0.17    1.00
  YS02001754YS02001757 CONDUIT    354.09     0  02:16      0.46    0.14    1.00
  YS02001757CaochengTiaoxuchi CONDUIT   3035.29     0  02:14      3.86    1.31    1.00
  YS02001759YS02001757 CONDUIT   1107.92     0  02:12      1.41    0.79    1.00
  YS02001762YS02001759 CONDUIT    671.83     0  02:12      0.86    0.77    1.00
  YS02001765YS02001762 CONDUIT    662.73     0  02:12      0.84    0.62    1.00
  YS02001767YS02001765 CONDUIT    652.18     0  02:12      0.83    0.82    1.00
  YS02001770YS02001767 CONDUIT    642.52     0  02:12      0.82    2.55    1.00
  YS02001774YS02001770 CONDUIT    467.26     0  02:12      0.59    0.30    1.00
  YS02001779YS02001774 CONDUIT    477.27     0  02:12      0.62    0.24    1.00
  YS02001783YS02001784 CONDUIT   1149.18     0  02:13      2.29    1.58    1.00
  YS02001784YS02001785 CONDUIT   1149.41     0  02:13      2.29    2.67    1.00
  YS02001786YS02001788 CONDUIT   1149.40     0  02:13      2.46    2.21    0.89
  YS02001788YS02001790 CONDUIT   1162.48     0  02:13      2.71    0.86    0.83
  YS02001790YS02001791 CONDUIT   1275.70     0  02:16      3.42    1.39    0.70
  YS02001791YS02001793 CONDUIT   1226.99     0  02:17      6.48    0.53    0.44
  YS02001793JiankangQianchi CONDUIT   1206.71     0  02:17      2.34    0.10    0.64
  YS02001882YS02001884 CONDUIT     55.35     0  02:11      0.10    0.06    1.00
  YS02001884YS02001887 CONDUIT     71.81     0  02:11      0.09    0.10    1.00
  YS02001887YS02001890 CONDUIT    473.15     0  02:12      0.60    0.81    1.00
  YS02001890YS02001895 CONDUIT    473.11     0  02:13      0.60    0.22    1.00
  YS02001895YS02001898 CONDUIT    474.54     0  02:13      0.60    0.82    1.00
  YS02001898YS02001901 CONDUIT    476.83     0  02:13      0.61    0.31    1.00
  YS02001901YS02001904 CONDUIT    475.60     0  02:13      0.61    0.74    1.00
  YS02001904YS02001907 CONDUIT    477.02     0  02:13      0.61    0.17    1.00
  YS02001907YS02006553 CONDUIT    789.06     0  02:20      0.88    0.93    1.00
  YS02001910YS02001907 CONDUIT    951.04     0  02:14      1.21    0.54    1.00
  YS02001915YS02001910 CONDUIT    950.27     0  02:14      1.21    0.47    1.00
  YS02001918YS02001915 CONDUIT    462.70     0  02:14      0.59    0.26    1.00
  YS02001920YS02001918 CONDUIT    461.03     0  02:14      0.65    0.45    1.00
  YS02001923YS02001920 CONDUIT    457.41     0  02:14      0.72    0.21    1.00
  YS02001926YS02001923 CONDUIT    411.83     0  02:14      1.00    0.59    1.00
  YS02001929YS02001926 CONDUIT    408.19     0  02:14      1.17    0.19    1.00
  YS02006553YS02006556 CONDUIT    788.74     0  02:20      1.00    0.67    1.00
  YS02006556YS02006558 CONDUIT    791.13     0  02:20      1.01    0.62    1.00
  YS02006558YS02006561 CONDUIT   1168.42     0  02:12      4.13    2.58    1.00
  YS02006561YS02001783 CONDUIT   1148.54     0  02:13      2.29    0.59    1.00
  YS02163301YS02001633 CONDUIT    937.65     0  02:11      1.19    0.88    1.00
  YS02163601YS02164001 CONDUIT   1393.15     0  02:11      1.77    1.23    1.00
  YS02164001YS02001641 CONDUIT   1390.86     0  02:11      1.77    1.90    1.00
  CC-R1                PUMP       683.00     0  00:00              1.00
  CC-R2                PUMP       683.00     0  00:00              1.00
  CC-S1                PUMP       200.00     0  00:00              1.00
  CC-S2                PUMP       200.00     0  00:00              1.00
  JK-R1                PUMP      1000.00     0  00:00              1.00
  JK-R2                PUMP      1000.00     0  00:00              1.00
  JK-S                 PUMP       300.00     0  00:00              1.00
  XR-1                 PUMP        95.00     0  00:00              1.00
  XR-2                 PUMP        95.00     0  00:00              1.00
  XR-3                 PUMP        95.00     0  00:00              1.00
  XR-4                 PUMP        95.00     0  00:00              1.00
  
  
  ***************************
  Flow Classification Summary
  ***************************
  
  -------------------------------------------------------------------------------------
                      Adjusted    ---------- Fraction of Time in Flow Class ---------- 
                       /Actual         Up    Down  Sub   Sup   Up    Down  Norm  Inlet 
  Conduit               Length    Dry  Dry   Dry   Crit  Crit  Crit  Crit  Ltd   Ctrl  
  -------------------------------------------------------------------------------------
  1                       1.00   0.00  0.00  0.00  0.00  1.00  0.00  0.00  0.12  0.00
  WS02001211WS02001212    1.00   0.00  0.02  0.00  0.98  0.00  0.00  0.00  0.00  0.00
  WS02001212WS02001213    1.00   0.02  0.00  0.00  0.17  0.00  0.81  0.00  0.00  0.00
  WS02001213WS02003059    1.00   0.00  0.01  0.00  0.99  0.00  0.00  0.00  0.00  0.00
  WS02003059WS02003060    1.00   0.00  0.00  0.00  1.00  0.00  0.00  0.00  0.03  0.00
  WS02003060WS02003069    1.00   0.00  0.00  0.00  0.98  0.02  0.00  0.00  0.76  0.00
  WS02003066WSF200        1.00   0.13  0.00  0.00  0.00  0.87  0.00  0.00  0.73  0.00
  WS02003067WS02003066    1.00   0.10  0.02  0.00  0.88  0.00  0.00  0.00  0.00  0.00
  WS02003069WS02003072    1.00   0.00  0.00  0.00  1.00  0.00  0.00  0.00  0.80  0.00
  WS02003072WS02003073    1.00   0.00  0.00  0.00  0.00  0.00  0.00  1.00  0.00  0.00
  WS02004138WS02004139    1.00   0.00  0.00  0.00  0.97  0.01  0.00  0.02  0.98  0.00
  WS02004139WS02001211    1.00   0.00  0.00  0.00  0.99  0.00  0.00  0.00  0.00  0.00
  WS02004401WS02004402    1.00   0.02  0.00  0.00  0.98  0.00  0.00  0.00  0.00  0.00
  WS02004402WS02004403    1.00   0.02  0.00  0.00  0.97  0.00  0.00  0.00  0.00  0.00
  WS02004403WS02004404    1.00   0.00  0.03  0.00  0.97  0.00  0.00  0.00  0.00  0.00
  WS02004404WS02004405    1.00   0.00  0.00  0.00  1.00  0.00  0.00  0.00  0.01  0.00
  WS02004405WS02004406    1.00   0.00  0.00  0.00  1.00  0.00  0.00  0.00  0.00  0.00
  WS02004406WS02004407    1.00   0.00  0.05  0.00  0.95  0.00  0.00  0.00  0.00  0.00
  WS02004407WS02004409    1.00   0.05  0.00  0.00  0.94  0.01  0.00  0.00  0.94  0.00
  WS02004409WS02004410    1.00   0.05  0.00  0.00  0.95  0.00  0.00  0.00  0.03  0.00
  WS02004410WS02004411    1.00   0.05  0.00  0.00  0.95  0.00  0.00  0.00  0.01  0.00
  WS02004411WS02004412    1.00   0.05  0.00  0.00  0.95  0.00  0.00  0.00  0.00  0.00
  WS02004412WS02004413    1.00   0.05  0.00  0.00  0.94  0.00  0.00  0.00  0.01  0.00
  WS02004413WS02003067    1.00   0.06  0.04  0.00  0.00  0.00  0.90  0.00  0.00  0.00
  WS02006109WS02006110    1.00   0.00  0.01  0.00  0.98  0.00  0.01  0.00  0.00  0.00
  WS02006110WS02006113    1.00   0.01  0.01  0.00  0.98  0.00  0.00  0.00  0.00  0.00
  WS02006111WS02006112    1.00   0.02  0.00  0.00  0.98  0.00  0.00  0.00  0.98  0.00
  WS02006112WS02006115    1.00   0.02  0.00  0.00  0.97  0.00  0.00  0.00  0.00  0.00
  WS02006113WS02006111    1.00   0.02  0.00  0.00  0.00  0.98  0.00  0.00  0.07  0.00
  WS02006115WS02006116    1.00   0.02  0.00  0.00  0.97  0.00  0.00  0.01  0.00  0.00
  WS02006116WS02004401    1.00   0.02  0.00  0.00  0.98  0.00  0.00  0.00  0.00  0.00
  WS02006228WS02006109    1.00   0.00  0.00  0.00  1.00  0.00  0.00  0.00  0.00  0.00
  WS02006229WS02006228    1.00   0.00  0.00  0.00  0.99  0.00  0.00  0.01  0.00  0.00
  WS02006230WS02006229    1.00   0.00  0.00  0.00  0.99  0.00  0.00  0.01  0.00  0.00
  WS02006231WS02006230    1.00   0.00  0.00  0.00  0.16  0.00  0.84  0.00  0.00  0.00
  WS02006232WS02006231    1.00   0.00  0.00  0.00  0.99  0.00  0.01  0.00  0.00  0.00
  WS02006234WS02006232    1.00   0.00  0.00  0.00  1.00  0.00  0.00  0.00  0.52  0.00
  WS02006235WS02006234    1.00   0.00  0.00  0.00  0.44  0.00  0.56  0.00  0.00  0.00
  WS02006238WS02006235    1.00   0.00  0.00  0.00  1.00  0.00  0.00  0.00  0.00  0.00
  WS02006239WS02006238    1.00   0.00  0.00  0.00  1.00  0.00  0.00  0.00  0.62  0.00
  WS02006240WS02006239    1.00   0.00  0.00  0.00  0.33  0.00  0.00  0.67  0.01  0.00
  WS02006242WS02006240    1.00   0.00  0.00  0.00  1.00  0.00  0.00  0.00  0.00  0.00
  WS02006243WS02006242    1.00   0.00  0.00  0.00  0.99  0.00  0.00  0.01  0.78  0.00
  WS02006245WS02006243    1.00   0.00  0.00  0.00  0.38  0.00  0.00  0.62  0.00  0.00
  WS02006247WS02006245    1.00   0.00  0.00  0.00  0.99  0.00  0.00  0.01  0.00  0.00
  WS02006248WS02006247    1.00   0.00  0.00  0.00  0.99  0.00  0.00  0.01  0.19  0.00
  WS02006249WS02006248    1.00   0.00  0.00  0.00  0.27  0.00  0.73  0.00  0.00  0.00
  WS02006251WS02006249    1.00   0.00  0.00  0.00  0.99  0.01  0.00  0.00  0.77  0.00
  WS02006252WS02006251    1.00   0.00  0.80  0.00  0.13  0.00  0.07  0.00  0.00  0.00
  WS02006256WS02006235    1.00   0.00  0.00  0.00  1.00  0.00  0.00  0.00  0.00  0.00
  WSF200WS02003060        1.00   0.00  0.13  0.00  0.72  0.15  0.00  0.00  0.71  0.00
  YS02001580YS02001583    1.00   0.27  0.58  0.00  0.15  0.00  0.00  0.00  0.67  0.00
  YS02001583YS02001586    1.00   0.50  0.30  0.00  0.20  0.00  0.00  0.00  0.68  0.00
  YS02001586YS02001590    1.00   0.13  0.00  0.00  0.37  0.04  0.00  0.46  0.35  0.00
  YS02001590YS02001593    1.00   0.13  0.01  0.00  0.07  0.00  0.79  0.00  0.00  0.00
  YS02001593YS02001596    1.00   0.14  0.00  0.00  0.08  0.01  0.00  0.77  0.01  0.00
  YS02001596YS02001600    1.00   0.14  0.00  0.00  0.15  0.01  0.00  0.70  0.05  0.00
  YS02001600YS02001601    1.00   0.13  0.01  0.00  0.86  0.00  0.00  0.00  0.65  0.00
  YS02001601YS02001602    1.00   0.13  0.01  0.00  0.86  0.00  0.00  0.00  0.00  0.00
  YS02001602YS02001605    1.00   0.14  0.00  0.00  0.86  0.00  0.00  0.00  0.00  0.00
  YS02001605YS02001607    1.00   0.14  0.00  0.00  0.86  0.00  0.00  0.00  0.00  0.00
  YS02001607YS02001610    1.00   0.13  0.01  0.00  0.86  0.00  0.00  0.00  0.02  0.00
  YS02001610YS02001613    1.00   0.13  0.00  0.00  0.87  0.00  0.00  0.00  0.01  0.00
  YS02001613YS02001616    1.00   0.13  0.00  0.00  0.87  0.00  0.00  0.00  0.01  0.00
  YS02001616YS02001619    1.00   0.13  0.00  0.00  0.87  0.00  0.00  0.00  0.00  0.00
  YS02001619YS02001622    1.00   0.13  0.00  0.00  0.87  0.00  0.00  0.00  0.35  0.00
  YS02001622YS02001625    1.00   0.13  0.00  0.00  0.87  0.00  0.00  0.00  0.06  0.00
  YS02001625YS02001629    1.00   0.13  0.06  0.00  0.11  0.00  0.71  0.00  0.00  0.00
  YS02001629YS02163301    1.00   0.16  0.01  0.00  0.83  0.00  0.00  0.00  0.00  0.00
  YS02001633YS02163601    1.00   0.00  0.01  0.00  0.99  0.00  0.00  0.00  0.15  0.00
  YS02001641YS02001644    1.00   0.00  0.01  0.00  0.99  0.00  0.00  0.00  0.00  0.00
  YS02001644YS02001647    1.00   0.00  0.19  0.00  0.81  0.00  0.00  0.00  0.00  0.00
  YS02001647YS02001649    1.00   0.00  0.19  0.00  0.53  0.29  0.00  0.00  0.60  0.00
  YS02001649YS02001757    1.00   0.00  0.00  0.00  0.68  0.31  0.00  0.00  0.57  0.00
  YS02001652YS02001649    1.00   0.00  0.00  0.00  0.96  0.04  0.00  0.00  0.80  0.00
  YS02001655YS02001652    1.00   0.00  0.00  0.00  0.12  0.02  0.00  0.86  0.05  0.00
  YS02001658YS02001655    1.00   0.00  0.14  0.00  0.63  0.23  0.00  0.00  0.75  0.00
  YS02001661YS02001658    1.00   0.14  0.00  0.00  0.49  0.36  0.00  0.00  0.75  0.00
  YS02001664YS02001661    1.00   0.13  0.00  0.00  0.78  0.09  0.00  0.00  0.86  0.00
  YS02001745YS02001748    1.00   0.00  0.00  0.00  0.04  0.01  0.00  0.95  0.03  0.00
  YS02001748YS02001751    1.00   0.00  0.00  0.00  0.81  0.19  0.00  0.00  0.80  0.00
  YS02001751YS02001754    1.00   0.00  0.00  0.00  0.09  0.00  0.00  0.90  0.02  0.00
  YS02001754YS02001757    1.00   0.00  0.00  0.00  1.00  0.00  0.00  0.00  0.89  0.00
  YS02001757CaochengTiaoxuchi    1.00   0.00  0.00  0.00  1.00  0.00  0.00  0.00  0.89  0.00
  YS02001759YS02001757    1.00   0.00  0.00  0.00  1.00  0.00  0.00  0.00  0.65  0.00
  YS02001762YS02001759    1.00   0.00  0.00  0.00  1.00  0.00  0.00  0.00  0.05  0.00
  YS02001765YS02001762    1.00   0.00  0.00  0.00  1.00  0.00  0.00  0.00  0.78  0.00
  YS02001767YS02001765    1.00   0.00  0.00  0.00  1.00  0.00  0.00  0.00  0.00  0.00
  YS02001770YS02001767    1.00   0.00  0.00  0.00  1.00  0.00  0.00  0.00  0.00  0.00
  YS02001774YS02001770    1.00   0.00  0.13  0.00  0.59  0.00  0.27  0.00  0.04  0.00
  YS02001779YS02001774    1.00   0.00  0.00  0.00  1.00  0.00  0.00  0.00  0.83  0.00
  YS02001783YS02001784    1.00   0.00  0.19  0.00  0.81  0.00  0.00  0.00  0.58  0.00
  YS02001784YS02001785    1.00   0.00  0.00  0.00  1.00  0.00  0.00  0.00  0.18  0.00
  YS02001786YS02001788    1.00   0.00  0.00  0.00  0.81  0.19  0.00  0.00  0.00  0.00
  YS02001788YS02001790    1.00   0.00  0.00  0.00  0.21  0.79  0.00  0.00  0.85  0.00
  YS02001790YS02001791    1.00   0.00  0.00  0.00  0.01  0.99  0.00  0.00  0.15  0.00
  YS02001791YS02001793    1.00   0.00  0.00  0.00  0.00  1.00  0.00  0.00  0.00  0.00
  YS02001793JiankangQianchi    1.00   0.00  0.00  0.00  1.00  0.00  0.00  0.00  0.97  0.00
  YS02001882YS02001884    1.00   0.16  0.01  0.00  0.83  0.00  0.00  0.00  0.00  0.00
  YS02001884YS02001887    1.00   0.06  0.05  0.00  0.89  0.00  0.00  0.00  0.00  0.00
  YS02001887YS02001890    1.00   0.00  0.00  0.00  0.97  0.00  0.03  0.00  0.00  0.00
  YS02001890YS02001895    1.00   0.00  0.17  0.00  0.82  0.00  0.00  0.00  0.00  0.00
  YS02001895YS02001898    1.00   0.18  0.00  0.00  0.80  0.00  0.02  0.00  0.00  0.00
  YS02001898YS02001901    1.00   0.18  0.00  0.00  0.82  0.00  0.00  0.00  0.01  0.00
  YS02001901YS02001904    1.00   0.18  0.00  0.00  0.82  0.00  0.00  0.00  0.00  0.00
  YS02001904YS02001907    1.00   0.00  0.17  0.00  0.82  0.00  0.00  0.00  0.00  0.00
  YS02001907YS02006553    1.00   0.00  0.02  0.00  0.98  0.00  0.00  0.00  0.00  0.00
  YS02001910YS02001907    1.00   0.00  0.00  0.00  0.97  0.00  0.00  0.03  0.12  0.00
  YS02001915YS02001910    1.00   0.00  0.00  0.00  0.96  0.04  0.00  0.00  0.17  0.00
  YS02001918YS02001915    1.00   0.00  0.01  0.00  0.98  0.02  0.00  0.00  0.80  0.00
  YS02001920YS02001918    1.00   0.00  0.01  0.00  0.99  0.00  0.00  0.00  0.00  0.00
  YS02001923YS02001920    1.00   0.00  0.00  0.00  1.00  0.00  0.00  0.00  0.96  0.00
  YS02001926YS02001923    1.00   0.00  0.07  0.00  0.03  0.00  0.90  0.00  0.00  0.00
  YS02001929YS02001926    1.00   0.00  0.13  0.00  0.87  0.00  0.00  0.00  0.85  0.00
  YS02006553YS02006556    1.00   0.01  0.00  0.00  0.99  0.00  0.00  0.00  0.03  0.00
  YS02006556YS02006558    1.00   0.00  0.00  0.00  1.00  0.00  0.00  0.00  0.00  0.00
  YS02006558YS02006561    1.00   0.19  0.00  0.00  0.03  0.78  0.00  0.00  0.18  0.00
  YS02006561YS02001783    1.00   0.19  0.00  0.00  0.05  0.75  0.00  0.00  0.72  0.00
  YS02163301YS02001633    1.00   0.00  0.16  0.00  0.84  0.00  0.00  0.00  0.00  0.00
  YS02163601YS02164001    1.00   0.00  0.08  0.00  0.92  0.00  0.00  0.00  0.00  0.00
  YS02164001YS02001641    1.00   0.01  0.07  0.00  0.92  0.00  0.00  0.00  0.06  0.00
  
  
  *************************
  Conduit Surcharge Summary
  *************************
  
  ----------------------------------------------------------------------------
                                                           Hours        Hours 
                         --------- Hours Full --------   Above Full   Capacity
  Conduit                Both Ends  Upstream  Dnstream   Normal Flow   Limited
  ----------------------------------------------------------------------------
  WS02003072WS02003073        0.01      0.01      0.01      1.34         0.01
  WS02004404WS02004405        0.01      0.01      0.01      1.60         0.01
  WS02004405WS02004406        0.01      0.01      0.01      0.95         0.01
  WS02006109WS02006110        1.01      1.01      1.22      1.02         0.01
  WS02006110WS02006113        0.01      0.01      1.21      0.01         0.01
  WS02006111WS02006112        0.01      0.01      1.28      0.01         0.01
  WS02006112WS02006115        0.01      0.01      0.96      0.01         0.01
  WS02006228WS02006109        1.19      1.22      1.19      1.38         1.19
  WS02006229WS02006228        1.19      1.19      1.19      1.30         1.18
  WS02006230WS02006229        1.26      1.28      1.26      1.95         1.26
  WS02006231WS02006230        1.01      1.01      1.04      1.76         0.01
  WS02006232WS02006231        1.03      1.03      1.24      1.05         0.01
  WS02006234WS02006232        1.17      1.17      1.24      1.04         1.04
  WS02006235WS02006234        1.15      1.15      1.19      1.65         0.01
  WS02006238WS02006235        1.20      1.20      1.23      0.01         0.01
  WS02006239WS02006238        1.19      1.19      1.21      1.16         1.06
  WS02006240WS02006239        1.18      1.18      1.18      1.17         1.01
  WS02006242WS02006240        1.18      1.18      1.19      1.23         0.01
  WS02006243WS02006242        1.17      1.17      1.19      0.01         0.01
  WS02006245WS02006243        1.16      1.16      1.17      0.18         0.27
  WS02006247WS02006245        1.16      1.17      1.16      1.43         1.16
  WS02006248WS02006247        1.15      1.15      1.16      0.01         0.01
  WS02006249WS02006248        1.15      1.15      1.15      1.42         0.01
  WS02006251WS02006249        1.15      1.15      1.15      1.25         1.13
  WS02006252WS02006251        1.31      1.31      1.31      1.31         0.01
  WS02006256WS02006235        1.69      1.71      3.03      1.29         0.01
  YS02001580YS02001583        0.29      0.29      0.33      0.01         0.01
  YS02001583YS02001586        0.29      0.29      0.40      0.01         0.01
  YS02001586YS02001590        0.41      0.41      0.46      0.01         0.01
  YS02001590YS02001593        0.46      0.46      0.48      0.49         0.01
  YS02001593YS02001596        0.47      0.47      0.56      0.01         0.01
  YS02001596YS02001600        0.59      0.59      0.67      0.01         0.01
  YS02001600YS02001601        0.72      0.72      1.00      0.01         0.01
  YS02001601YS02001602        0.88      0.88      1.05      0.67         0.01
  YS02001602YS02001605        0.83      0.83      0.88      1.87         0.01
  YS02001605YS02001607        0.79      0.83      0.79      0.95         0.79
  YS02001607YS02001610        0.43      0.43      0.45      0.01         0.01
  YS02001610YS02001613        0.43      0.43      0.45      0.01         0.01
  YS02001613YS02001616        0.39      0.39      0.43      0.01         0.01
  YS02001616YS02001619        0.38      0.38      0.39      0.01         0.01
  YS02001619YS02001622        0.38      0.38      0.38      0.48         0.36
  YS02001622YS02001625        0.38      0.38      0.52      0.01         0.01
  YS02001625YS02001629        0.35      0.35      0.52      0.01         0.01
  YS02001629YS02163301        0.52      0.52      0.52      0.14         0.15
  YS02001633YS02163601        0.54      0.54      0.56      0.29         0.28
  YS02001641YS02001644        0.44      0.48      0.44      1.11         0.44
  YS02001644YS02001647        0.29      0.29      0.44      0.03         0.01
  YS02001647YS02001649        0.29      0.29      0.37      0.01         0.01
  YS02001649YS02001757        0.37      0.37      0.41      0.15         0.11
  YS02001652YS02001649        0.25      0.25      0.37      0.01         0.01
  YS02001655YS02001652        0.13      0.13      0.23      0.01         0.01
  YS02001658YS02001655        0.03      0.03      0.13      0.01         0.01
  YS02001661YS02001658        0.01      0.01      0.03      0.01         0.01
  YS02001745YS02001748        0.01      0.01      0.01      0.01         0.01
  YS02001748YS02001751        0.01      0.01      0.06      0.01         0.01
  YS02001751YS02001754        0.06      0.06      0.16      0.01         0.01
  YS02001754YS02001757        0.20      0.20      0.41      0.01         0.01
  YS02001757CaochengTiaoxuchi        0.41      0.41      0.92      0.16         0.16
  YS02001759YS02001757        0.33      0.33      0.41      0.01         0.01
  YS02001762YS02001759        0.31      0.31      0.33      0.01         0.01
  YS02001765YS02001762        0.28      0.28      0.31      0.01         0.01
  YS02001767YS02001765        0.26      0.26      0.28      0.01         0.01
  YS02001770YS02001767        0.25      0.26      0.26      0.27         0.16
  YS02001774YS02001770        0.24      0.24      0.29      0.01         0.01
  YS02001779YS02001774        0.16      0.16      0.29      0.01         0.01
  YS02001783YS02001784        0.26      0.27      0.26      0.39         0.26
  YS02001784YS02001785        0.17      0.26      0.17      0.56         0.17
  YS02001786YS02001788        0.01      0.17      0.01      0.48         0.01
  YS02001790YS02001791        0.01      0.01      0.01      0.25         0.01
  YS02001793JiankangQianchi        0.01      0.01      7.68      0.01         0.01
  YS02001882YS02001884        0.23      0.23      0.24      0.01         0.01
  YS02001884YS02001887        0.26      0.26      0.27      0.01         0.01
  YS02001887YS02001890        0.28      0.28      0.29      0.01         0.01
  YS02001890YS02001895        0.22      0.22      0.30      0.01         0.01
  YS02001895YS02001898        0.22      0.22      0.22      0.01         0.01
  YS02001898YS02001901        0.22      0.22      0.26      0.01         0.01
  YS02001901YS02001904        0.25      0.25      0.26      0.01         0.01
  YS02001904YS02001907        0.25      0.25      0.46      0.01         0.01
  YS02001907YS02006553        0.57      0.57      0.62      0.01         0.01
  YS02001910YS02001907        0.30      0.30      0.45      0.01         0.01
  YS02001915YS02001910        0.23      0.23      0.30      0.01         0.01
  YS02001918YS02001915        0.16      0.16      0.23      0.01         0.01
  YS02001920YS02001918        0.16      0.16      0.17      0.01         0.01
  YS02001923YS02001920        0.10      0.10      0.17      0.01         0.01
  YS02001926YS02001923        0.01      0.01      0.01      0.01         0.01
  YS02001929YS02001926        0.01      0.01      0.01      0.01         0.01
  YS02006553YS02006556        0.37      0.37      0.46      0.01         0.01
  YS02006556YS02006558        0.41      0.41      0.47      0.01         0.01
  YS02006558YS02006561        0.19      0.36      0.19      0.53         0.19
  YS02006561YS02001783        0.12      0.12      0.27      0.01         0.01
  YS02163301YS02001633        0.52      0.52      0.55      0.01         0.01
  YS02163601YS02164001        0.49      0.49      0.56      0.06         0.01
  YS02164001YS02001641        0.48      0.49      0.48      0.55         0.44
  
  
  ***************
  Pumping Summary
  ***************
  
  ---------------------------------------------------------------------------------------------------------
                                                  Min       Avg       Max     Total     Power    % Time Off
                        Percent   Number of      Flow      Flow      Flow    Volume     Usage    Pump Curve
  Pump                 Utilized   Start-Ups       LPS       LPS       LPS  10^6 ltr     Kw-hr    Low   High
  ---------------------------------------------------------------------------------------------------------
  CC-R1                   15.31          12      0.00    683.00    683.00     3.011     54.48    0.0   32.5
  CC-R2                   14.18          12      0.00    683.00    683.00     2.788     50.35    0.0   35.1
  CC-S1                   18.54          12      0.00    200.00    200.00     1.068      6.54    0.0    0.0
  CC-S2                   16.42          12      0.00    200.00    200.00     0.946      5.80    0.0    0.0
  JK-R1                    4.15           8      0.00   1000.00   1000.00     1.195     14.56    0.0    0.0
  JK-R2                    0.16           1      0.00   1000.00   1000.00     0.047      0.36    0.0    0.0
  JK-S                    16.16           6      0.00    300.00    300.00     1.396     19.46    0.0    0.0
  XR-1                    97.91           2      0.00     95.00     95.00     2.679      9.60    0.0    0.0
  XR-2                    93.94           2      0.00     95.00     95.00     2.570      8.76    0.0    0.0
  XR-3                     0.00           1      0.00     95.00     95.00     0.000      0.00    0.0    0.0
  XR-4                     0.00           1      0.00     95.00     95.00     0.000      0.00    0.0    0.0
  

  Analysis begun on:  Wed Nov  5 16:31:28 2025
  Analysis ended on:  Wed Nov  5 16:31:30 2025
  Total elapsed time: 00:00:02