
  EPA STORM WATER MANAGEMENT MODEL - VERSION 5.2 (Build 5.2.4)
  PYSWMM TOOLKIT API - VERSION v1.0 (2023-11-27)
  ------------------------------------------------------------

  WARNING 04: minimum elevation drop used for Conduit WS02004404WS02004405
  WARNING 03: negative offset ignored for Link YS02001904YS02001907
  
  ****************
  Analysis Options
  ****************
  Flow Units ............... LPS
  Process Models:
    Rainfall/Runoff ........ YES
    RDII ................... NO
    Snowmelt ............... NO
    Groundwater ............ NO
    Flow Routing ........... YES
    Ponding Allowed ........ NO
    Water Quality .......... NO
  Infiltration Method ...... HORTON
  Flow Routing Method ...... DYNWAVE
  Surcharge Method ......... EXTRAN
  Starting Date ............ 08/28/2015 08:00:00
  Ending Date .............. 08/28/2015 16:00:00
  Antecedent Dry Days ...... 8.0
  Report Time Step ......... 00:01:00
  Wet Time Step ............ 00:01:00
  Dry Time Step ............ 00:01:00
  Routing Time Step ........ 30.00 sec
  Variable Time Step ....... YES
  Maximum Trials ........... 8
  Number of Threads ........ 4
  Head Tolerance ........... 0.001500 m
  
  
  **************************        Volume         Depth
  Runoff Quantity Continuity     hectare-m            mm
  **************************     ---------       -------
  Initial LID Storage ......         0.049         1.488
  Total Precipitation ......         1.109        33.436
  Evaporation Loss .........         0.000         0.000
  Infiltration Loss ........         0.069         2.072
  Surface Runoff ...........         0.781        23.556
  Final Storage ............         0.309         9.306
  Continuity Error (%) .....        -0.026
  
  
  **************************        Volume        Volume
  Flow Routing Continuity        hectare-m      10^6 ltr
  **************************     ---------     ---------
  Dry Weather Inflow .......         0.602         6.020
  Wet Weather Inflow .......         0.780         7.804
  Groundwater Inflow .......         0.000         0.000
  RDII Inflow ..............         0.000         0.000
  External Inflow ..........         0.105         1.045
  External Outflow .........         1.410        14.102
  Flooding Loss ............         0.055         0.551
  Evaporation Loss .........         0.000         0.000
  Exfiltration Loss ........         0.000         0.000
  Initial Stored Volume ....         0.303         3.031
  Final Stored Volume ......         0.331         3.306
  Continuity Error (%) .....        -0.325
  
  
  *************************
  Highest Continuity Errors
  *************************
  Node YS02001583 (-5.99%)
  Node YS02001884 (5.46%)
  Node YS02001774 (2.44%)
  Node YS02001907 (1.21%)
  Node WS02006256 (-1.20%)
  
  
  ***************************
  Time-Step Critical Elements
  ***************************
  Link WS02004404WS02004405 (39.61%)
  Link WS02006238WS02006235 (24.27%)
  Link WS02003066WSF200 (7.09%)
  Link WS02006235WS02006234 (5.35%)
  Link WS02006252WS02006251 (5.22%)
  
  
  ********************************
  Highest Flow Instability Indexes
  ********************************
  Link WS02006113WS02006111 (30)
  Link WS02006252WS02006251 (18)
  Link WS02006256WS02006235 (16)
  Link WS02006111WS02006112 (15)
  Link WS02006238WS02006235 (14)
  
  
  *********************************
  Most Frequent Nonconverging Nodes
  *********************************
  Node CC-1 (16.64%)
  Node CC-2 (16.64%)
  Node JK-1 (16.64%)
  Node JK-2 (16.64%)
  Node WSC (16.64%)
  
  
  *************************
  Routing Time Step Summary
  *************************
  Minimum Time Step           :     0.02 sec
  Average Time Step           :     3.56 sec
  Maximum Time Step           :     7.04 sec
  % of Time in Steady State   :     0.00
  Average Iterations per Step :     3.30
  % of Steps Not Converging   :    16.64
  Time Step Frequencies       :
     30.000 - 13.228 sec      :     0.00 %
     13.228 -  5.833 sec      :    26.71 %
      5.833 -  2.572 sec      :    39.74 %
      2.572 -  1.134 sec      :    19.13 %
      1.134 -  0.500 sec      :    14.42 %
  
  
  ***************************
  Subcatchment Runoff Summary
  ***************************
  
  ------------------------------------------------------------------------------------------------------------------------------
                            Total      Total      Total      Total     Imperv       Perv      Total       Total     Peak  Runoff
                           Precip      Runon       Evap      Infil     Runoff     Runoff     Runoff      Runoff   Runoff   Coeff
  Subcatchment                 mm         mm         mm         mm         mm         mm         mm    10^6 ltr      LPS
  ------------------------------------------------------------------------------------------------------------------------------
  sub60                     33.44       0.00       0.00       1.28      21.78       1.82      23.60        0.31   189.06   0.706
  sub61                     33.44       0.00       0.00       1.95      21.76       2.70      24.46        0.45   269.05   0.731
  sub62                     33.44       0.00       0.00       0.87      23.19       1.24      24.43        0.67   371.22   0.731
  sub63                     33.44       0.00       0.00       3.53      18.64       4.41      23.05        0.52   285.87   0.689
  sub64                     33.44       0.00       0.00       1.70      21.21       2.21      23.42        0.56   287.99   0.700
  sub65                     33.44       0.00       0.00       1.56      22.89       2.01      24.90        0.69   332.58   0.745
  sub66                     33.44       0.00       0.00       4.00      18.00       3.69      21.69        1.01   399.86   0.649
  sub67                     33.44       0.00       0.00       0.87      23.79       1.28      25.07        0.47   307.30   0.750
  sub68                     33.44       0.00       0.00       1.50      21.00       2.07      23.07        0.63   367.63   0.690
  sub69                     33.44       0.00       0.00       1.31      22.45       2.66      25.11        0.93   448.72   0.751
  sub70                     33.44       0.00       0.00       4.25      17.96       5.06      23.02        0.67   238.33   0.688
  sub71                     33.44       0.00       0.00       0.80      21.06       1.11      22.18        0.58   298.44   0.663
  sub72                     33.44       0.00       0.00       0.76      22.74       1.03      23.77        0.33   147.69   0.711
  

  ***********************
  LID Performance Summary
  ***********************

  --------------------------------------------------------------------------------------------------------------------
                                         Total      Evap     Infil   Surface    Drain    Initial     Final  Continuity
                                        Inflow      Loss      Loss   Outflow   Outflow   Storage   Storage       Error
  Subcatchment      LID Control             mm        mm        mm        mm        mm        mm        mm           %
  --------------------------------------------------------------------------------------------------------------------
  sub60             GreenRoof            33.44      0.00      0.00      0.00      0.00      7.05     40.50       -0.02
  sub61             GreenRoof            33.44      0.00      0.00      0.00      0.00      7.05     40.50       -0.02
  sub62             GreenRoof            33.44      0.00      0.00      0.00      0.00      7.05     40.50       -0.02
  sub63             GreenRoof            33.44      0.00      0.00      0.00      0.00      7.05     40.50       -0.02
  sub64             GreenRoof            33.44      0.00      0.00      0.00      0.00      7.05     40.50       -0.02
  sub65             GreenRoof            33.44      0.00      0.00      0.00      0.00      7.05     40.50       -0.02
  sub66             GreenRoof            33.44      0.00      0.00      0.00      0.00      7.05     40.50       -0.02
  sub67             GreenRoof            33.44      0.00      0.00      0.00      0.00      7.05     40.50       -0.02
  sub68             GreenRoof            33.44      0.00      0.00      0.00      0.00      7.05     40.50       -0.02
  sub69             GreenRoof            33.44      0.00      0.00      0.00      0.00      7.05     40.50       -0.02
  sub70             GreenRoof            33.44      0.00      0.00      0.00      0.00      7.05     40.50       -0.02
  sub71             GreenRoof            33.44      0.00      0.00      0.00      0.00      7.05     40.50       -0.02
  sub72             GreenRoof            33.44      0.00      0.00      0.00      0.00      7.05     40.50       -0.02
  
  ******************
  Node Depth Summary
  ******************
  
  ---------------------------------------------------------------------------------
                                 Average  Maximum  Maximum  Time of Max    Reported
                                   Depth    Depth      HGL   Occurrence   Max Depth
  Node                 Type       Meters   Meters   Meters  days hr:min      Meters
  ---------------------------------------------------------------------------------
  WS02001211           JUNCTION     0.60     0.64     5.48     0  02:36        0.64
  WS02001212           JUNCTION     0.33     0.38     5.44     0  02:34        0.38
  WS02001213           JUNCTION     0.52     0.64     5.41     0  02:33        0.64
  WS02003059           JUNCTION     0.59     0.71     5.40     0  02:34        0.71
  WS02003060           JUNCTION     0.29     0.45     5.38     0  02:32        0.45
  WS02003066           JUNCTION     0.15     0.29     5.85     0  02:13        0.29
  WS02003067           JUNCTION     0.42     0.69     6.01     0  02:13        0.69
  WS02003069           JUNCTION     0.33     0.50     5.09     0  02:34        0.50
  WS02003072           JUNCTION     0.39     0.57     4.94     0  02:35        0.57
  WS02003073           JUNCTION     0.23     0.34     4.41     0  02:35        0.34
  WS02004138           JUNCTION     0.13     0.14     7.39     0  00:29        0.14
  WS02004139           JUNCTION     0.54     0.58     5.49     0  02:36        0.58
  WS02004401           JUNCTION     0.51     0.84     6.84     0  02:10        0.84
  WS02004402           JUNCTION     0.54     0.87     6.83     0  02:11        0.87
  WS02004403           JUNCTION     0.57     0.89     6.82     0  02:11        0.89
  WS02004404           JUNCTION     0.64     0.96     6.81     0  02:11        0.96
  WS02004405           JUNCTION     0.64     0.95     6.80     0  02:11        0.95
  WS02004406           JUNCTION     0.65     0.95     6.78     0  02:11        0.95
  WS02004407           JUNCTION     0.13     0.29     6.61     0  02:11        0.29
  WS02004409           JUNCTION     0.30     0.66     6.43     0  02:12        0.66
  WS02004410           JUNCTION     0.33     0.67     6.39     0  02:12        0.67
  WS02004411           JUNCTION     0.35     0.68     6.36     0  02:12        0.68
  WS02004412           JUNCTION     0.38     0.69     6.33     0  02:13        0.69
  WS02004413           JUNCTION     0.53     0.85     6.32     0  02:13        0.85
  WS02006109           JUNCTION     0.56     1.25     7.87     0  01:52        0.99
  WS02006110           JUNCTION     0.57     1.32     7.91     0  01:52        0.98
  WS02006111           JUNCTION     0.14     0.29     7.00     0  02:21        0.29
  WS02006112           JUNCTION     0.66     1.07     6.95     0  02:33        1.05
  WS02006113           JUNCTION     0.21     0.46     7.35     0  02:21        0.46
  WS02006115           JUNCTION     0.39     0.75     6.88     0  02:10        0.74
  WS02006116           JUNCTION     0.48     0.83     6.87     0  02:10        0.82
  WS02006228           JUNCTION     0.55     1.43     8.08     0  01:52        1.12
  WS02006229           JUNCTION     0.52     1.50     8.19     0  01:52        1.15
  WS02006230           JUNCTION     0.52     1.83     8.58     0  01:52        1.27
  WS02006231           JUNCTION     0.33     1.39     8.51     0  01:52        1.04
  WS02006232           JUNCTION     0.45     1.73     8.77     0  01:56        1.40
  WS02006234           JUNCTION     0.38     1.96     9.12     0  01:56        1.96
  WS02006235           JUNCTION     0.42     2.00     9.16     0  01:56        2.00
  WS02006238           JUNCTION     0.44     2.15     9.29     0  03:12        2.15
  WS02006239           JUNCTION     0.41     2.03     9.24     0  02:19        2.03
  WS02006240           JUNCTION     0.38     2.10     9.39     0  02:19        2.10
  WS02006242           JUNCTION     0.44     1.55     8.82     0  01:56        1.55
  WS02006243           JUNCTION     0.37     1.48     8.90     0  02:19        1.48
  WS02006245           JUNCTION     0.38     1.56     9.04     0  02:19        1.56
  WS02006247           JUNCTION     0.39     1.47     8.97     0  02:19        1.47
  WS02006248           JUNCTION     0.37     1.10     8.69     0  01:52        1.10
  WS02006249           JUNCTION     0.39     1.09     8.69     0  01:52        1.09
  WS02006251           JUNCTION     0.39     1.86     9.53     0  02:19        1.32
  WS02006252           JUNCTION     0.26     1.50     9.74     0  00:00        0.87
  WS02006256           JUNCTION     0.93     2.35     9.28     0  00:00        2.35
  WSF200               JUNCTION     0.13     0.30     5.54     0  02:32        0.30
  YS02001580           JUNCTION     0.06     1.05     9.59     0  01:41        0.60
  YS02001583           JUNCTION     0.10     1.02     9.52     0  01:41        0.65
  YS02001586           JUNCTION     0.16     1.13     9.30     0  01:41        0.97
  YS02001590           JUNCTION     0.26     1.40     9.26     0  01:41        1.23
  YS02001593           JUNCTION     0.20     1.34     9.20     0  01:41        1.18
  YS02001596           JUNCTION     0.28     1.68     9.10     0  01:41        1.58
  YS02001600           JUNCTION     0.35     1.87     9.00     0  01:41        1.82
  YS02001601           JUNCTION     0.54     2.06     8.90     0  01:40        2.06
  YS02001602           JUNCTION     0.45     1.87     8.77     0  01:41        1.82
  YS02001605           JUNCTION     0.40     1.78     8.68     0  01:41        1.63
  YS02001607           JUNCTION     0.38     1.65     8.50     0  01:41        1.32
  YS02001610           JUNCTION     0.42     1.68     8.48     0  01:41        1.36
  YS02001613           JUNCTION     0.38     1.68     8.52     0  01:41        1.30
  YS02001616           JUNCTION     0.31     1.61     8.52     0  01:41        1.21
  YS02001619           JUNCTION     0.29     1.61     8.54     0  01:41        1.19
  YS02001622           JUNCTION     0.28     1.58     8.49     0  01:41        1.17
  YS02001625           JUNCTION     0.53     1.78     8.38     0  01:41        1.40
  YS02001629           JUNCTION     0.40     1.85     8.40     0  01:41        1.40
  YS02001633           JUNCTION     0.47     1.90     8.35     0  01:41        1.42
  YS02001641           JUNCTION     0.44     1.53     7.97     0  01:41        1.21
  YS02001644           JUNCTION     0.43     1.39     7.82     0  01:41        1.14
  YS02001647           JUNCTION     0.21     0.77     7.38     0  01:42        0.77
  YS02001649           JUNCTION     0.25     0.89     7.28     0  01:43        0.87
  YS02001652           JUNCTION     0.14     0.68     7.28     0  01:43        0.66
  YS02001655           JUNCTION     0.08     0.43     7.28     0  01:42        0.43
  YS02001658           JUNCTION     0.06     0.24     7.38     0  01:39        0.24
  YS02001661           JUNCTION     0.12     0.30     7.70     0  01:40        0.30
  YS02001664           JUNCTION     0.05     0.20     8.13     0  01:40        0.20
  YS02001745           JUNCTION     0.04     0.18     7.70     0  01:39        0.18
  YS02001748           JUNCTION     0.05     0.21     7.29     0  01:39        0.21
  YS02001751           JUNCTION     0.06     0.27     7.15     0  01:46        0.24
  YS02001754           JUNCTION     0.12     0.58     7.19     0  01:51        0.52
  YS02001757           JUNCTION     0.27     0.90     7.16     0  01:47        0.86
  YS02001759           JUNCTION     0.21     0.80     7.17     0  01:45        0.77
  YS02001762           JUNCTION     0.20     0.75     7.15     0  01:45        0.75
  YS02001765           JUNCTION     0.18     0.72     7.17     0  01:46        0.70
  YS02001767           JUNCTION     0.18     0.68     7.17     0  01:45        0.67
  YS02001770           JUNCTION     0.19     0.71     7.20     0  01:45        0.71
  YS02001774           JUNCTION     0.25     0.78     7.20     0  01:44        0.77
  YS02001779           JUNCTION     0.09     0.53     7.22     0  01:44        0.51
  YS02001783           JUNCTION     0.21     0.84     6.98     0  01:45        0.84
  YS02001784           JUNCTION     0.23     0.80     6.87     0  01:45        0.80
  YS02001786           JUNCTION     0.20     0.65     6.68     0  01:46        0.65
  YS02001788           JUNCTION     0.15     0.51     6.49     0  01:46        0.51
  YS02001790           JUNCTION     0.18     0.60     6.25     0  01:46        0.60
  YS02001791           JUNCTION     0.11     0.37     5.84     0  01:46        0.36
  YS02001793           JUNCTION     0.06     0.18     5.02     0  01:46        0.18
  YS02001882           JUNCTION     0.25     0.91     7.62     0  01:44        0.89
  YS02001884           JUNCTION     0.34     1.00     7.62     0  01:44        0.99
  YS02001887           JUNCTION     0.41     1.08     7.62     0  01:44        1.06
  YS02001890           JUNCTION     0.44     1.10     7.61     0  01:44        1.10
  YS02001895           JUNCTION     0.22     0.86     7.61     0  01:45        0.86
  YS02001898           JUNCTION     0.23     0.87     7.61     0  01:45        0.86
  YS02001901           JUNCTION     0.34     1.00     7.61     0  01:45        0.99
  YS02001904           JUNCTION     0.32     0.98     7.61     0  01:45        0.97
  YS02001907           JUNCTION     0.63     1.33     7.62     0  01:45        1.33
  YS02001910           JUNCTION     0.43     1.11     7.62     0  01:45        1.10
  YS02001915           JUNCTION     0.25     0.91     7.62     0  01:45        0.90
  YS02001918           JUNCTION     0.10     0.56     7.62     0  01:46        0.55
  YS02001920           JUNCTION     0.18     0.62     7.63     0  01:46        0.62
  YS02001923           JUNCTION     0.06     0.37     7.63     0  01:46        0.36
  YS02001926           JUNCTION     0.11     0.32     7.76     0  01:43        0.32
  YS02001929           JUNCTION     0.05     0.18     7.87     0  01:43        0.18
  YS02006553           JUNCTION     0.63     1.32     7.61     0  01:45        1.32
  YS02006556           JUNCTION     0.61     1.26     7.58     0  01:45        1.25
  YS02006558           JUNCTION     0.65     1.30     7.56     0  01:45        1.29
  YS02006561           JUNCTION     0.12     0.44     7.10     0  01:45        0.43
  YS02163301           JUNCTION     0.42     1.89     8.41     0  01:41        1.40
  YS02163601           JUNCTION     0.50     1.75     8.15     0  01:41        1.37
  YS02164001           JUNCTION     0.43     1.60     8.06     0  01:41        1.25
  CC-1                 OUTFALL      0.00     0.00     0.00     0  00:00        0.00
  CC-2                 OUTFALL      0.00     0.00     0.00     0  00:00        0.00
  JK-1                 OUTFALL      0.00     0.00     0.00     0  00:00        0.00
  JK-2                 OUTFALL      0.00     0.00     0.00     0  00:00        0.00
  WSC                  OUTFALL      0.23     0.34     1.01     0  02:36        0.34
  CC-storage           STORAGE      0.76     1.37     6.87     0  02:09        1.37
  JK-storage           STORAGE      3.14     4.22     5.02     0  01:52        4.22
  XR-storage           STORAGE      7.84     9.26     7.26     0  08:00        9.26
  
  
  *******************
  Node Inflow Summary
  *******************
  
  -------------------------------------------------------------------------------------------------
                                  Maximum  Maximum                  Lateral       Total        Flow
                                  Lateral    Total  Time of Max      Inflow      Inflow     Balance
                                   Inflow   Inflow   Occurrence      Volume      Volume       Error
  Node                 Type           LPS      LPS  days hr:min    10^6 ltr    10^6 ltr     Percent
  -------------------------------------------------------------------------------------------------
  WS02001211           JUNCTION      7.35   200.11     0  02:38       0.212        5.44       0.611
  WS02001212           JUNCTION      0.00   202.69     0  03:30           0        5.41       0.290
  WS02001213           JUNCTION      0.00   204.91     0  03:30           0        5.39       0.333
  WS02003059           JUNCTION      0.00   210.02     0  03:28           0        5.38       0.596
  WS02003060           JUNCTION     16.53   731.28     0  02:33       0.476        9.04       0.162
  WS02003066           JUNCTION      0.00   522.18     0  02:13           0        3.22       0.049
  WS02003067           JUNCTION      0.00   521.98     0  02:13           0        3.23       0.136
  WS02003069           JUNCTION      0.32   727.64     0  02:34     0.00922        9.03       0.171
  WS02003072           JUNCTION      0.00   725.92     0  02:35           0        9.02       0.233
  WS02003073           JUNCTION      1.82   727.70     0  02:35      0.0524        9.05       0.243
  WS02004138           JUNCTION      0.00   380.00     0  00:00           0        5.25       0.053
  WS02004139           JUNCTION      0.32   191.16     0  00:29     0.00924        5.26       0.509
  WS02004401           JUNCTION      0.00   538.84     0  02:28           0        3.33       0.311
  WS02004402           JUNCTION      0.00   536.02     0  02:28           0        3.32       0.317
  WS02004403           JUNCTION      0.00   534.53     0  02:29           0        3.31       0.308
  WS02004404           JUNCTION      0.16   532.13     0  02:11     0.00467         3.3       0.272
  WS02004405           JUNCTION      0.04   531.99     0  02:11      0.0011         3.3       0.370
  WS02004406           JUNCTION      0.00   531.21     0  02:11           0        3.28       0.638
  WS02004407           JUNCTION      0.00   531.11     0  02:11           0        3.26       0.038
  WS02004409           JUNCTION      0.00   530.73     0  02:11           0        3.26       0.093
  WS02004410           JUNCTION      0.00   527.27     0  02:11           0        3.26       0.148
  WS02004411           JUNCTION      0.00   525.52     0  02:12           0        3.25       0.186
  WS02004412           JUNCTION      0.00   523.32     0  02:12           0        3.25       0.246
  WS02004413           JUNCTION      0.00   522.71     0  02:13           0        3.24       0.430
  WS02006109           JUNCTION      1.23   566.16     0  01:52      0.0354        3.37       0.255
  WS02006110           JUNCTION      0.00   567.16     0  02:54           0        3.37       0.194
  WS02006111           JUNCTION      0.00   562.39     0  03:14           0        3.36       0.018
  WS02006112           JUNCTION      0.00   548.19     0  02:21           0        3.36       0.522
  WS02006113           JUNCTION      0.00   583.06     0  02:54           0        3.36       0.061
  WS02006115           JUNCTION      0.00   559.06     0  02:21           0        3.34       0.199
  WS02006116           JUNCTION      0.00   541.58     0  02:55           0        3.33       0.078
  WS02006228           JUNCTION      0.00   564.87     0  01:52           0        3.34       0.101
  WS02006229           JUNCTION      0.00   564.41     0  01:52           0        3.35       0.149
  WS02006230           JUNCTION     10.28   621.26     0  03:12       0.296        3.35       0.100
  WS02006231           JUNCTION      0.00   649.52     0  03:12           0        3.05      -0.160
  WS02006232           JUNCTION      0.00   643.48     0  03:12           0        3.06       0.420
  WS02006234           JUNCTION      0.00   616.06     0  03:12           0        3.05      -0.366
  WS02006235           JUNCTION      0.00   576.05     0  03:12           0        3.14       0.230
  WS02006238           JUNCTION      0.00   424.20     0  01:55           0        2.43      -0.138
  WS02006239           JUNCTION      0.00   428.89     0  01:51           0        2.39      -0.081
  WS02006240           JUNCTION      0.00   421.87     0  01:55           0        2.34      -0.079
  WS02006242           JUNCTION      0.00   421.95     0  01:51           0        2.31      -0.102
  WS02006243           JUNCTION      0.00   422.69     0  01:51           0        2.29      -0.121
  WS02006245           JUNCTION      0.00   422.95     0  01:51           0        2.29       0.471
  WS02006247           JUNCTION      0.00   423.28     0  01:51           0        2.29      -0.010
  WS02006248           JUNCTION      0.00   423.24     0  01:51           0        2.29      -0.185
  WS02006249           JUNCTION      0.00   458.97     0  00:00           0        2.45       0.694
  WS02006251           JUNCTION      0.08   408.20     0  03:12     0.00222        2.45       0.020
  WS02006252           JUNCTION      0.00   400.00     0  00:00           0        2.44      -0.367
  WS02006256           JUNCTION      0.00   300.00     0  00:00           0        1.08      -1.186
  WSF200               JUNCTION      0.00   522.29     0  02:13           0        3.22       0.022
  YS02001580           JUNCTION      0.00    96.99     0  01:41           0     0.00416       2.280
  YS02001583           JUNCTION      0.00   132.62     0  01:41           0       0.015      -5.652
  YS02001586           JUNCTION    238.33   244.21     0  01:42       0.665       0.676       0.206
  YS02001590           JUNCTION      0.00   244.32     0  01:42           0       0.663      -0.032
  YS02001593           JUNCTION      0.00   244.31     0  01:42           0       0.664       0.017
  YS02001596           JUNCTION      0.00   244.35     0  01:42           0       0.663      -0.035
  YS02001600           JUNCTION      0.00   244.38     0  01:42           0       0.664       0.013
  YS02001601           JUNCTION    448.72   692.21     0  01:42       0.928        1.59       0.044
  YS02001602           JUNCTION      0.00   556.84     0  01:41           0        1.51       0.024
  YS02001605           JUNCTION      0.00   556.80     0  01:41           0        1.51       0.017
  YS02001607           JUNCTION      0.00   556.76     0  01:41           0        1.51       0.110
  YS02001610           JUNCTION      0.00   545.38     0  01:41           0        1.51       0.153
  YS02001613           JUNCTION      0.00   554.74     0  01:41           0        1.51       0.105
  YS02001616           JUNCTION      0.00   562.45     0  01:41           0        1.51       0.019
  YS02001619           JUNCTION    399.86   916.39     0  01:41        1.01        2.52       0.005
  YS02001622           JUNCTION      0.00   918.67     0  01:41           0        2.51      -0.007
  YS02001625           JUNCTION      0.00   905.85     0  01:41           0        2.51       0.367
  YS02001629           JUNCTION      0.00   906.11     0  01:41           0        2.51       0.018
  YS02001633           JUNCTION    332.78  1216.07     0  01:41       0.691         3.2       0.101
  YS02001641           JUNCTION      0.00  1216.36     0  01:41           0         3.2       0.086
  YS02001644           JUNCTION    288.03  1504.38     0  01:41       0.563        3.76       0.083
  YS02001647           JUNCTION      0.00  1509.59     0  01:41           0        3.74       0.010
  YS02001649           JUNCTION      0.00  1838.24     0  01:43           0        4.27       0.010
  YS02001652           JUNCTION      0.00   335.70     0  01:43           0       0.525      -0.374
  YS02001655           JUNCTION      0.15   285.78     0  01:40     0.00443       0.527       0.318
  YS02001658           JUNCTION      0.00   285.63     0  01:40           0       0.522      -0.011
  YS02001661           JUNCTION      0.00   285.73     0  01:40           0       0.523       0.074
  YS02001664           JUNCTION    285.87   285.87     0  01:40       0.523       0.523      -0.017
  YS02001745           JUNCTION    189.06   189.06     0  01:39        0.31        0.31      -0.008
  YS02001748           JUNCTION      0.04   189.43     0  01:39      0.0013       0.311      -0.008
  YS02001751           JUNCTION      0.01   189.63     0  01:39    0.000317       0.311       0.397
  YS02001754           JUNCTION      0.26   290.34     0  01:57     0.00749       0.341      -0.335
  YS02001757           JUNCTION      0.00  2470.71     0  01:45           0        5.75       0.064
  YS02001759           JUNCTION    269.09   576.63     0  01:45       0.449        1.14      -0.024
  YS02001762           JUNCTION      0.00   364.45     0  01:45           0       0.687       0.023
  YS02001765           JUNCTION      0.00   354.52     0  01:46           0       0.687       0.025
  YS02001767           JUNCTION      0.54   366.01     0  01:46      0.0154       0.687       0.010
  YS02001770           JUNCTION    371.37   371.37     0  01:40       0.673       0.702       0.003
  YS02001774           JUNCTION      0.00    90.66     0  01:42           0      0.0488       2.503
  YS02001779           JUNCTION      0.01    65.68     0  01:44    0.000144      0.0187       0.120
  YS02001783           JUNCTION      0.00   903.20     0  01:45           0        2.06       0.014
  YS02001784           JUNCTION      1.06   903.59     0  01:45      0.0305        2.09       0.024
  YS02001786           JUNCTION      0.06   904.17     0  01:45     0.00162        2.09       0.031
  YS02001788           JUNCTION      0.07   904.75     0  01:46     0.00204        2.09       0.016
  YS02001790           JUNCTION      0.15   906.92     0  01:46     0.00446        2.09       0.046
  YS02001791           JUNCTION      0.00   953.11     0  01:46           0        2.09      -0.015
  YS02001793           JUNCTION      0.00   923.91     0  01:46           0        2.09       0.011
  YS02001882           JUNCTION      0.00    27.34     0  01:39           0      0.0118       5.804
  YS02001884           JUNCTION      0.00    72.45     0  01:37           0      0.0458       5.778
  YS02001887           JUNCTION    307.75   307.75     0  01:39       0.478        0.51       0.865
  YS02001890           JUNCTION      0.00   285.86     0  01:40           0       0.471       1.102
  YS02001895           JUNCTION      0.00   267.92     0  01:40           0       0.466       0.348
  YS02001898           JUNCTION      0.00   240.96     0  01:40           0       0.464       0.076
  YS02001901           JUNCTION      0.00   234.82     0  01:45           0       0.468       0.709
  YS02001904           JUNCTION      0.00   227.12     0  01:45           0       0.481       0.599
  YS02001907           JUNCTION      0.00   631.76     0  01:49           0        1.47       1.229
  YS02001910           JUNCTION      0.00   425.59     0  01:47           0       0.988       0.740
  YS02001915           JUNCTION    298.46   429.46     0  01:46        0.58        0.99       0.162
  YS02001918           JUNCTION      0.00   170.45     0  01:47           0        0.41       0.078
  YS02001920           JUNCTION      2.87   162.97     0  01:45      0.0827       0.412       0.259
  YS02001923           JUNCTION      0.04   147.68     0  01:43     0.00109       0.329       0.001
  YS02001926           JUNCTION      0.05   147.73     0  01:43      0.0015       0.328       0.071
  YS02001929           JUNCTION    147.69   147.69     0  01:43       0.327       0.327      -0.014
  YS02006553           JUNCTION      0.00   630.24     0  01:49           0        1.45       0.806
  YS02006556           JUNCTION      0.00   631.20     0  01:49           0        1.47       0.559
  YS02006558           JUNCTION    368.51   905.27     0  01:45       0.659         2.1       0.162
  YS02006561           JUNCTION      0.00   905.51     0  01:45           0        2.06      -0.000
  YS02163301           JUNCTION      0.00   883.19     0  01:41           0        2.51       0.059
  YS02163601           JUNCTION      0.11  1216.19     0  01:41     0.00317        3.19       0.147
  YS02164001           JUNCTION      0.00  1216.01     0  01:41           0        3.19       0.073
  CC-1                 OUTFALL       0.00   683.00     0  00:00           0        3.85       0.000
  CC-2                 OUTFALL       0.00   683.00     0  00:00           0       0.205       0.000
  JK-1                 OUTFALL       0.00  1000.00     0  00:00           0        0.97       0.000
  JK-2                 OUTFALL       0.00  1000.00     0  00:00           0      0.0484       0.000
  WSC                  OUTFALL       0.00   727.68     0  02:36           0        9.02       0.000
  CC-storage           STORAGE       0.00  2357.97     0  01:45           0        7.95      -0.313
  JK-storage           STORAGE       0.00   924.06     0  01:46           0        2.24       0.002
  XR-storage           STORAGE     200.00   200.00     0  00:00        5.76        6.36       0.001
  
  
  **********************
  Node Surcharge Summary
  **********************
  
  Surcharging occurs when water rises above the top of the highest conduit.
  ---------------------------------------------------------------------
                                               Max. Height   Min. Depth
                                   Hours       Above Crown    Below Rim
  Node                 Type      Surcharged         Meters       Meters
  ---------------------------------------------------------------------
  WS02006109           JUNCTION        1.45          0.428        1.392
  WS02006110           JUNCTION        0.41          0.415        1.435
  WS02006112           JUNCTION        0.43          0.072        1.608
  WS02006228           JUNCTION        1.44          0.600        1.600
  WS02006229           JUNCTION        1.45          0.701        1.749
  WS02006230           JUNCTION        0.43          0.753        0.817
  WS02006231           JUNCTION        0.60          0.676        0.854
  WS02006232           JUNCTION        1.48          1.026        0.454
  WS02006234           JUNCTION        1.13          1.240        0.000
  WS02006235           JUNCTION        1.42          1.290        0.000
  WS02006238           JUNCTION        1.46          1.430        0.000
  WS02006239           JUNCTION        1.44          1.290        0.000
  WS02006240           JUNCTION        1.46          1.390        0.000
  WS02006242           JUNCTION        1.48          0.820        0.000
  WS02006243           JUNCTION        1.47          0.770        0.000
  WS02006245           JUNCTION        1.46          0.850        0.000
  WS02006247           JUNCTION        1.46          0.760        0.000
  WS02006248           JUNCTION        1.45          0.380        0.000
  WS02006249           JUNCTION        1.45          0.390        0.000
  WS02006251           JUNCTION        0.69          0.826        0.354
  WS02006252           JUNCTION        1.66          1.100        0.000
  WS02006256           JUNCTION        4.31          2.050        0.000
  YS02001580           JUNCTION        0.01          0.450        0.000
  YS02001583           JUNCTION        0.01          0.383        0.117
  YS02001586           JUNCTION        0.26          0.510        0.000
  YS02001590           JUNCTION        0.33          0.750        0.000
  YS02001593           JUNCTION        0.33          0.717        0.123
  YS02001596           JUNCTION        0.43          0.953        0.117
  YS02001600           JUNCTION        0.53          1.190        0.000
  YS02001601           JUNCTION        0.83          1.440        0.000
  YS02001602           JUNCTION        0.72          1.270        0.000
  YS02001605           JUNCTION        0.68          1.180        0.000
  YS02001607           JUNCTION        0.26          0.650        0.030
  YS02001610           JUNCTION        0.29          0.680        0.000
  YS02001613           JUNCTION        0.25          0.684        0.016
  YS02001616           JUNCTION        0.21          0.610        0.000
  YS02001619           JUNCTION        0.19          0.608        0.002
  YS02001622           JUNCTION        0.18          0.583        0.037
  YS02001625           JUNCTION        0.37          0.780        0.000
  YS02001629           JUNCTION        0.05          0.470        0.000
  YS02001633           JUNCTION        0.38          0.878        0.182
  YS02001641           JUNCTION        0.29          0.534        0.566
  YS02001644           JUNCTION        0.23          0.392        0.528
  YS02001783           JUNCTION        0.09          0.041        1.559
  YS02001784           JUNCTION        0.01          0.002        1.488
  YS02001887           JUNCTION        0.07          0.028        0.922
  YS02001890           JUNCTION        0.10          0.053        0.707
  YS02001901           JUNCTION        0.01          0.003        0.867
  YS02001907           JUNCTION        0.32          0.317        0.633
  YS02001910           JUNCTION        0.15          0.111        0.989
  YS02006553           JUNCTION        0.33          0.322        0.868
  YS02006556           JUNCTION        0.24          0.225        1.125
  YS02006558           JUNCTION        0.23          0.197        1.203
  YS02163301           JUNCTION        0.37          0.893        0.137
  YS02163601           JUNCTION        0.41          0.749        0.331
  YS02164001           JUNCTION        0.31          0.604        0.496
  
  
  *********************
  Node Flooding Summary
  *********************
  
  Flooding refers to all water that overflows a node, whether it ponds or not.
  --------------------------------------------------------------------------
                                                             Total   Maximum
                                 Maximum   Time of Max       Flood    Ponded
                        Hours       Rate    Occurrence      Volume     Depth
  Node                 Flooded       LPS   days hr:min    10^6 ltr    Meters
  --------------------------------------------------------------------------
  WS02006234              0.01     41.33      0  01:56       0.000     0.000
  WS02006235              0.01     29.05      0  03:12       0.000     0.000
  WS02006238              0.01     23.70      0  03:12       0.000     0.000
  WS02006239              0.01      9.01      0  03:12       0.000     0.000
  WS02006240              0.01      9.43      0  03:12       0.000     0.000
  WS02006242              0.01     31.19      0  03:12       0.000     0.000
  WS02006243              0.01      4.68      0  03:12       0.000     0.000
  WS02006245              0.01      2.54      0  03:12       0.000     0.000
  WS02006247              0.01      2.08      0  02:19       0.000     0.000
  WS02006248              0.01     19.64      0  02:54       0.000     0.000
  WS02006249              0.64     95.19      0  02:54       0.146     0.000
  WS02006252              0.01    245.63      0  00:00       0.000     0.000
  WS02006256              0.99    293.19      0  00:00       0.322     0.000
  YS02001580              0.01     25.18      0  01:41       0.000     0.000
  YS02001586              0.01     55.57      0  01:41       0.001     0.000
  YS02001590              0.01      8.70      0  01:41       0.000     0.000
  YS02001600              0.01      2.66      0  01:41       0.000     0.000
  YS02001601              0.18    243.01      0  01:41       0.081     0.000
  YS02001602              0.01     14.92      0  01:41       0.000     0.000
  YS02001605              0.01      1.67      0  01:41       0.000     0.000
  YS02001610              0.01     16.25      0  01:41       0.000     0.000
  YS02001616              0.01      4.86      0  01:41       0.000     0.000
  YS02001625              0.01     45.18      0  01:41       0.000     0.000
  YS02001629              0.01     90.93      0  01:41       0.000     0.000
  
  
  **********************
  Storage Volume Summary
  **********************
  
  ------------------------------------------------------------------------------------------------
                         Average    Avg   Evap  Exfil     Maximum    Max    Time of Max    Maximum
                          Volume   Pcnt   Pcnt   Pcnt      Volume   Pcnt     Occurrence    Outflow
  Storage Unit           1000 m³   Full   Loss   Loss     1000 m³   Full    days hr:min        LPS
  ------------------------------------------------------------------------------------------------
  CC-storage               2.111   32.9    0.0    0.0       3.810   59.4       0  02:09    1783.53
  JK-storage               0.158   54.2    0.0    0.0       0.212   72.7       0  01:52    2300.00
  XR-storage               0.940   65.3    0.0    0.0       1.111   77.2       0  08:00     380.00
  
  
  ***********************
  Outfall Loading Summary
  ***********************
  
  -----------------------------------------------------------
                         Flow       Avg       Max       Total
                         Freq      Flow      Flow      Volume
  Outfall Node           Pcnt       LPS       LPS    10^6 ltr
  -----------------------------------------------------------
  CC-1                  33.20    683.00    683.00       3.853
  CC-2                   1.20    683.00    683.00       0.205
  JK-1                   8.91   1000.00   1000.00       0.970
  JK-2                   0.26   1000.00   1000.00       0.048
  WSC                   99.93    363.16    727.68       9.025
  -----------------------------------------------------------
  System                28.70   3729.16   3366.23      14.102
  
  
  ********************
  Link Flow Summary
  ********************
  
  -----------------------------------------------------------------------------
                                 Maximum  Time of Max   Maximum    Max/    Max/
                                  |Flow|   Occurrence   |Veloc|    Full    Full
  Link                 Type          LPS  days hr:min     m/sec    Flow   Depth
  -----------------------------------------------------------------------------
  1                    CONDUIT    727.68     0  02:36      3.05    0.25    0.34
  WS02001211WS02001212 CONDUIT    202.69     0  03:30      0.54    0.15    0.51
  WS02001212WS02001213 CONDUIT    204.91     0  03:30      1.04    0.32    0.35
  WS02001213WS02003059 CONDUIT    210.02     0  03:28      0.47    0.35    0.67
  WS02003059WS02003060 CONDUIT    217.28     0  03:28      0.67    0.14    0.58
  WS02003060WS02003069 CONDUIT    727.32     0  02:34      1.76    0.28    0.39
  WS02003066WSF200     CONDUIT    522.29     0  02:13      2.72    0.09    0.23
  WS02003067WS02003066 CONDUIT    522.18     0  02:13      1.19    0.17    0.41
  WS02003069WS02003072 CONDUIT    725.92     0  02:35      1.50    0.35    0.44
  WS02003072WS02003073 CONDUIT    725.87     0  02:35      1.58    1.57    0.43
  WS02004138WS02004139 CONDUIT    190.84     0  00:29      2.17    0.04    0.33
  WS02004139WS02001211 CONDUIT    192.76     0  02:38      0.54    0.24    0.47
  WS02004401WS02004402 CONDUIT    536.02     0  02:28      0.97    0.64    0.86
  WS02004402WS02004403 CONDUIT    534.53     0  02:29      0.97    0.77    0.88
  WS02004403WS02004404 CONDUIT    531.97     0  02:11      0.92    0.38    0.92
  WS02004404WS02004405 CONDUIT    531.95     0  02:11      1.08    5.21    0.96
  WS02004405WS02004406 CONDUIT    531.21     0  02:11      0.99    1.05    0.95
  WS02004406WS02004407 CONDUIT    531.11     0  02:11      1.03    0.24    0.62
  WS02004407WS02004409 CONDUIT    530.73     0  02:11      1.56    0.19    0.47
  WS02004409WS02004410 CONDUIT    527.27     0  02:11      1.05    0.68    0.66
  WS02004410WS02004411 CONDUIT    525.52     0  02:12      1.02    0.72    0.68
  WS02004411WS02004412 CONDUIT    523.32     0  02:12      0.92    0.74    0.69
  WS02004412WS02004413 CONDUIT    522.71     0  02:13      0.81    0.35    0.77
  WS02004413WS02003067 CONDUIT    521.98     0  02:13      1.09    0.22    0.59
  WS02006109WS02006110 CONDUIT    567.16     0  02:54      1.13    1.09    1.00
  WS02006110WS02006113 CONDUIT    583.06     0  02:54      1.41    0.53    0.79
  WS02006111WS02006112 CONDUIT    548.19     0  02:21      1.82    0.26    0.67
  WS02006112WS02006115 CONDUIT    559.06     0  02:21      0.89    0.33    0.87
  WS02006113WS02006111 CONDUIT    562.39     0  03:14      2.47    0.67    0.47
  WS02006115WS02006116 CONDUIT    541.58     0  02:55      1.09    0.70    0.75
  WS02006116WS02004401 CONDUIT    538.84     0  02:28      0.98    0.74    0.84
  WS02006228WS02006109 CONDUIT    564.93     0  01:52      1.12    2.47    1.00
  WS02006229WS02006228 CONDUIT    564.87     0  01:52      1.15    1.87    1.00
  WS02006230WS02006229 CONDUIT    564.41     0  01:52      1.47   12.56    1.00
  WS02006231WS02006230 CONDUIT    610.98     0  03:12      1.68    9.27    1.00
  WS02006232WS02006231 CONDUIT    649.52     0  03:12      1.69    1.36    1.00
  WS02006234WS02006232 CONDUIT    643.48     0  03:12      1.67    1.30    1.00
  WS02006235WS02006234 CONDUIT    616.06     0  03:12      1.60    6.50    1.00
  WS02006238WS02006235 CONDUIT    423.54     0  01:51      1.56    0.95    1.00
  WS02006239WS02006238 CONDUIT    424.20     0  01:55      1.11    1.36    1.00
  WS02006240WS02006239 CONDUIT    428.89     0  01:51      1.24    1.35    1.00
  WS02006242WS02006240 CONDUIT    421.87     0  01:55      1.12    1.68    1.00
  WS02006243WS02006242 CONDUIT    421.95     0  01:51      1.39    0.90    1.00
  WS02006245WS02006243 CONDUIT    422.69     0  01:51      1.45    1.25    1.00
  WS02006247WS02006245 CONDUIT    422.95     0  01:51      1.44    3.35    1.00
  WS02006248WS02006247 CONDUIT    423.28     0  01:51      1.45    0.92    1.00
  WS02006249WS02006248 CONDUIT    423.24     0  01:51      1.37    2.32    1.00
  WS02006251WS02006249 CONDUIT    458.97     0  00:00      1.99    1.32    1.00
  WS02006252WS02006251 CONDUIT    408.12     0  03:12     25.11    1.50    1.00
  WS02006256WS02006235 CONDUIT    289.21     0  01:43      4.23    3.06    1.00
  WSF200WS02003060     CONDUIT    522.96     0  02:13      1.75    0.12    0.31
  YS02001580YS02001583 CONDUIT     96.99     0  01:41      0.64    0.38    1.00
  YS02001583YS02001586 CONDUIT    118.97     0  01:40      0.53    0.18    1.00
  YS02001586YS02001590 CONDUIT    244.32     0  01:42      1.32    0.43    1.00
  YS02001590YS02001593 CONDUIT    244.31     0  01:42      1.03    1.53    1.00
  YS02001593YS02001596 CONDUIT    244.35     0  01:42      1.70    0.39    1.00
  YS02001596YS02001600 CONDUIT    244.38     0  01:42      1.18    0.48    1.00
  YS02001600YS02001601 CONDUIT    244.38     0  01:42      0.86    0.42    1.00
  YS02001601YS02001602 CONDUIT    556.84     0  01:41      1.97    2.01    1.00
  YS02001602YS02001605 CONDUIT    556.80     0  01:41      1.97   11.78    1.00
  YS02001605YS02001607 CONDUIT    556.76     0  01:41      1.97    3.05    1.00
  YS02001607YS02001610 CONDUIT    545.38     0  01:41      0.75    0.52    1.00
  YS02001610YS02001613 CONDUIT    554.74     0  01:41      0.71    0.64    1.00
  YS02001613YS02001616 CONDUIT    562.45     0  01:41      0.72    0.48    1.00
  YS02001616YS02001619 CONDUIT    528.51     0  01:41      0.73    0.92    1.00
  YS02001619YS02001622 CONDUIT    918.67     0  01:41      1.43    1.35    1.00
  YS02001622YS02001625 CONDUIT    905.85     0  01:41      1.15    0.48    1.00
  YS02001625YS02001629 CONDUIT    906.11     0  01:41      1.16    0.43    1.00
  YS02001629YS02163301 CONDUIT    883.19     0  01:41      1.12    1.09    1.00
  YS02001633YS02163601 CONDUIT   1216.08     0  01:41      1.55    1.28    1.00
  YS02001641YS02001644 CONDUIT   1217.76     0  01:41      1.55    3.94    1.00
  YS02001644YS02001647 CONDUIT   1509.59     0  01:41      2.08    0.89    0.89
  YS02001647YS02001649 CONDUIT   1533.18     0  01:42      2.30    0.81    0.82
  YS02001649YS02001757 CONDUIT   1824.95     0  01:43      2.53    1.11    0.87
  YS02001652YS02001649 CONDUIT    361.44     0  01:43      0.97    0.18    0.78
  YS02001655YS02001652 CONDUIT    335.70     0  01:43      1.78    0.16    0.53
  YS02001658YS02001655 CONDUIT    285.63     0  01:40      1.93    0.12    0.33
  YS02001661YS02001658 CONDUIT    285.63     0  01:40      2.08    0.11    0.23
  YS02001664YS02001661 CONDUIT    285.73     0  01:40      1.87    0.09    0.25
  YS02001745YS02001748 CONDUIT    189.38     0  01:39      1.93    0.07    0.18
  YS02001748YS02001751 CONDUIT    189.62     0  01:39      1.62    0.10    0.22
  YS02001751YS02001754 CONDUIT    217.95     0  01:47      1.64    0.11    0.37
  YS02001754YS02001757 CONDUIT    293.93     0  01:56      0.74    0.12    0.72
  YS02001757CaochengTiaoxuchi CONDUIT   2357.97     0  01:45      3.20    1.02    0.95
  YS02001759YS02001757 CONDUIT    538.79     0  01:45      1.22    0.38    0.85
  YS02001762YS02001759 CONDUIT    368.21     0  01:45      0.62    0.42    0.78
  YS02001765YS02001762 CONDUIT    364.45     0  01:45      0.79    0.34    0.73
  YS02001767YS02001765 CONDUIT    354.52     0  01:46      0.93    0.45    0.70
  YS02001770YS02001767 CONDUIT    365.47     0  01:46      0.93    1.45    0.69
  YS02001774YS02001770 CONDUIT     90.66     0  01:42      0.21    0.06    0.73
  YS02001779YS02001774 CONDUIT     65.67     0  01:44      0.13    0.03    0.64
  YS02001783YS02001784 CONDUIT    902.53     0  01:45      1.80    1.24    1.00
  YS02001784YS02001785 CONDUIT    904.11     0  01:45      1.89    2.10    0.90
  YS02001786YS02001788 CONDUIT    904.68     0  01:46      2.32    1.74    0.72
  YS02001788YS02001790 CONDUIT    906.76     0  01:46      2.45    0.67    0.70
  YS02001790YS02001791 CONDUIT    953.11     0  01:46      3.04    1.04    0.60
  YS02001791YS02001793 CONDUIT    923.91     0  01:46      6.17    0.40    0.34
  YS02001793JiankangQianchi CONDUIT    924.06     0  01:46      1.91    0.07    0.59
  YS02001882YS02001884 CONDUIT     27.34     0  01:39      0.14    0.03    0.92
  YS02001884YS02001887 CONDUIT     72.45     0  01:37      0.15    0.10    1.00
  YS02001887YS02001890 CONDUIT    285.86     0  01:40      0.39    0.49    1.00
  YS02001890YS02001895 CONDUIT    267.92     0  01:40      0.40    0.12    0.93
  YS02001895YS02001898 CONDUIT    240.96     0  01:40      0.49    0.42    0.85
  YS02001898YS02001901 CONDUIT    234.82     0  01:45      0.36    0.15    0.93
  YS02001901YS02001904 CONDUIT    227.12     0  01:45      0.38    0.35    0.99
  YS02001904YS02001907 CONDUIT    227.17     0  01:55      0.32    0.08    0.99
  YS02001907YS02006553 CONDUIT    630.24     0  01:49      0.70    0.74    1.00
  YS02001910YS02001907 CONDUIT    424.99     0  01:47      0.54    0.24    1.00
  YS02001915YS02001910 CONDUIT    425.59     0  01:47      0.55    0.21    0.95
  YS02001918YS02001915 CONDUIT    178.49     0  01:49      0.44    0.10    0.73
  YS02001920YS02001918 CONDUIT    170.45     0  01:47      0.73    0.16    0.59
  YS02001923YS02001920 CONDUIT    160.10     0  01:45      0.84    0.07    0.49
  YS02001926YS02001923 CONDUIT    147.64     0  01:43      0.89    0.21    0.26
  YS02001929YS02001926 CONDUIT    147.68     0  01:43      0.98    0.07    0.25
  YS02006553YS02006556 CONDUIT    631.20     0  01:49      0.80    0.54    1.00
  YS02006556YS02006558 CONDUIT    631.60     0  01:49      0.80    0.50    1.00
  YS02006558YS02006561 CONDUIT    905.51     0  01:45      3.50    2.00    0.86
  YS02006561YS02001783 CONDUIT    903.20     0  01:45      2.17    0.47    0.77
  YS02163301YS02001633 CONDUIT    883.35     0  01:41      1.12    0.83    1.00
  YS02163601YS02164001 CONDUIT   1216.01     0  01:41      1.55    1.08    1.00
  YS02164001YS02001641 CONDUIT   1216.36     0  01:41      1.55    1.66    1.00
  CC-R1                PUMP       683.00     0  00:00              1.00
  CC-R2                PUMP       683.00     0  00:00              1.00
  CC-S1                PUMP       200.00     0  00:00              1.00
  CC-S2                PUMP       200.00     0  00:00              1.00
  JK-R1                PUMP      1000.00     0  00:00              1.00
  JK-R2                PUMP      1000.00     0  00:00              1.00
  JK-S                 PUMP       300.00     0  00:00              1.00
  XR-1                 PUMP        95.00     0  00:00              1.00
  XR-2                 PUMP        95.00     0  00:00              1.00
  XR-3                 PUMP        95.00     0  00:00              1.00
  XR-4                 PUMP        95.00     0  00:00              1.00
  
  
  ***************************
  Flow Classification Summary
  ***************************
  
  -------------------------------------------------------------------------------------
                      Adjusted    ---------- Fraction of Time in Flow Class ---------- 
                       /Actual         Up    Down  Sub   Sup   Up    Down  Norm  Inlet 
  Conduit               Length    Dry  Dry   Dry   Crit  Crit  Crit  Crit  Ltd   Ctrl  
  -------------------------------------------------------------------------------------
  1                       1.00   0.00  0.00  0.00  0.00  1.00  0.00  0.00  0.20  0.00
  WS02001211WS02001212    1.00   0.00  0.02  0.00  0.98  0.00  0.00  0.00  0.00  0.00
  WS02001212WS02001213    1.00   0.02  0.00  0.00  0.20  0.00  0.78  0.00  0.00  0.00
  WS02001213WS02003059    1.00   0.00  0.01  0.00  0.99  0.00  0.00  0.00  0.00  0.00
  WS02003059WS02003060    1.00   0.00  0.00  0.00  1.00  0.00  0.00  0.00  0.03  0.00
  WS02003060WS02003069    1.00   0.00  0.00  0.00  0.98  0.02  0.00  0.00  0.67  0.00
  WS02003066WSF200        1.00   0.13  0.00  0.00  0.00  0.87  0.00  0.00  0.79  0.00
  WS02003067WS02003066    1.00   0.10  0.02  0.00  0.88  0.00  0.00  0.00  0.00  0.00
  WS02003069WS02003072    1.00   0.00  0.00  0.00  1.00  0.00  0.00  0.00  0.78  0.00
  WS02003072WS02003073    1.00   0.00  0.00  0.00  0.00  0.00  0.00  1.00  0.00  0.00
  WS02004138WS02004139    1.00   0.00  0.00  0.00  0.97  0.01  0.00  0.02  0.98  0.00
  WS02004139WS02001211    1.00   0.00  0.00  0.00  0.99  0.00  0.00  0.00  0.00  0.00
  WS02004401WS02004402    1.00   0.02  0.00  0.00  0.98  0.00  0.00  0.00  0.00  0.00
  WS02004402WS02004403    1.00   0.02  0.00  0.00  0.97  0.00  0.00  0.00  0.00  0.00
  WS02004403WS02004404    1.00   0.00  0.03  0.00  0.97  0.00  0.00  0.00  0.00  0.00
  WS02004404WS02004405    1.00   0.00  0.00  0.00  1.00  0.00  0.00  0.00  0.01  0.00
  WS02004405WS02004406    1.00   0.00  0.00  0.00  1.00  0.00  0.00  0.00  0.00  0.00
  WS02004406WS02004407    1.00   0.00  0.05  0.00  0.95  0.00  0.00  0.00  0.00  0.00
  WS02004407WS02004409    1.00   0.05  0.00  0.00  0.94  0.01  0.00  0.00  0.94  0.00
  WS02004409WS02004410    1.00   0.05  0.00  0.00  0.95  0.00  0.00  0.00  0.03  0.00
  WS02004410WS02004411    1.00   0.05  0.00  0.00  0.95  0.00  0.00  0.00  0.01  0.00
  WS02004411WS02004412    1.00   0.05  0.00  0.00  0.95  0.00  0.00  0.00  0.00  0.00
  WS02004412WS02004413    1.00   0.05  0.00  0.00  0.94  0.00  0.00  0.00  0.01  0.00
  WS02004413WS02003067    1.00   0.06  0.04  0.00  0.00  0.00  0.90  0.00  0.00  0.00
  WS02006109WS02006110    1.00   0.00  0.01  0.00  0.98  0.00  0.01  0.00  0.00  0.00
  WS02006110WS02006113    1.00   0.01  0.01  0.00  0.98  0.00  0.00  0.00  0.00  0.00
  WS02006111WS02006112    1.00   0.02  0.00  0.00  0.98  0.00  0.00  0.00  0.98  0.00
  WS02006112WS02006115    1.00   0.02  0.00  0.00  0.97  0.00  0.00  0.00  0.00  0.00
  WS02006113WS02006111    1.00   0.02  0.00  0.00  0.00  0.98  0.00  0.00  0.10  0.00
  WS02006115WS02006116    1.00   0.02  0.00  0.00  0.97  0.00  0.00  0.01  0.00  0.00
  WS02006116WS02004401    1.00   0.02  0.00  0.00  0.98  0.00  0.00  0.00  0.00  0.00
  WS02006228WS02006109    1.00   0.00  0.00  0.00  1.00  0.00  0.00  0.00  0.00  0.00
  WS02006229WS02006228    1.00   0.00  0.00  0.00  0.99  0.00  0.00  0.01  0.00  0.00
  WS02006230WS02006229    1.00   0.00  0.00  0.00  0.99  0.00  0.00  0.01  0.01  0.00
  WS02006231WS02006230    1.00   0.00  0.00  0.00  0.19  0.00  0.81  0.00  0.00  0.00
  WS02006232WS02006231    1.00   0.00  0.00  0.00  0.98  0.00  0.01  0.00  0.00  0.00
  WS02006234WS02006232    1.00   0.00  0.00  0.00  1.00  0.00  0.00  0.00  0.28  0.00
  WS02006235WS02006234    1.00   0.00  0.00  0.00  0.66  0.00  0.34  0.00  0.00  0.00
  WS02006238WS02006235    1.00   0.00  0.00  0.00  1.00  0.00  0.00  0.00  0.00  0.00
  WS02006239WS02006238    1.00   0.00  0.00  0.00  1.00  0.00  0.00  0.00  0.46  0.00
  WS02006240WS02006239    1.00   0.00  0.00  0.00  0.44  0.00  0.00  0.56  0.02  0.00
  WS02006242WS02006240    1.00   0.00  0.00  0.00  1.00  0.00  0.00  0.00  0.00  0.00
  WS02006243WS02006242    1.00   0.00  0.00  0.00  0.99  0.00  0.00  0.01  0.73  0.00
  WS02006245WS02006243    1.00   0.00  0.00  0.00  0.48  0.00  0.00  0.52  0.01  0.00
  WS02006247WS02006245    1.00   0.00  0.00  0.00  0.98  0.00  0.00  0.02  0.00  0.00
  WS02006248WS02006247    1.00   0.00  0.00  0.00  0.99  0.00  0.00  0.01  0.25  0.00
  WS02006249WS02006248    1.00   0.00  0.00  0.00  0.32  0.00  0.68  0.00  0.00  0.00
  WS02006251WS02006249    1.00   0.00  0.00  0.00  0.99  0.01  0.00  0.00  0.73  0.00
  WS02006252WS02006251    1.00   0.00  0.76  0.00  0.09  0.00  0.15  0.00  0.01  0.00
  WS02006256WS02006235    1.00   0.00  0.00  0.00  0.99  0.01  0.00  0.00  0.00  0.00
  WSF200WS02003060        1.00   0.00  0.13  0.00  0.69  0.18  0.00  0.00  0.68  0.00
  YS02001580YS02001583    1.00   0.21  0.66  0.00  0.13  0.00  0.00  0.00  0.75  0.00
  YS02001583YS02001586    1.00   0.52  0.29  0.00  0.19  0.00  0.00  0.00  0.75  0.00
  YS02001586YS02001590    1.00   0.13  0.00  0.00  0.33  0.04  0.00  0.50  0.32  0.00
  YS02001590YS02001593    1.00   0.13  0.01  0.00  0.05  0.00  0.81  0.00  0.00  0.00
  YS02001593YS02001596    1.00   0.14  0.00  0.00  0.07  0.01  0.00  0.79  0.02  0.00
  YS02001596YS02001600    1.00   0.14  0.00  0.00  0.13  0.02  0.00  0.72  0.05  0.00
  YS02001600YS02001601    1.00   0.13  0.01  0.00  0.86  0.00  0.00  0.00  0.65  0.00
  YS02001601YS02001602    1.00   0.13  0.01  0.00  0.86  0.00  0.00  0.00  0.00  0.00
  YS02001602YS02001605    1.00   0.14  0.00  0.00  0.86  0.00  0.00  0.00  0.00  0.00
  YS02001605YS02001607    1.00   0.14  0.00  0.00  0.86  0.00  0.00  0.00  0.00  0.00
  YS02001607YS02001610    1.00   0.13  0.01  0.00  0.86  0.00  0.00  0.00  0.02  0.00
  YS02001610YS02001613    1.00   0.13  0.00  0.00  0.87  0.00  0.00  0.00  0.01  0.00
  YS02001613YS02001616    1.00   0.13  0.00  0.00  0.87  0.00  0.00  0.00  0.01  0.00
  YS02001616YS02001619    1.00   0.13  0.00  0.00  0.87  0.00  0.00  0.00  0.00  0.00
  YS02001619YS02001622    1.00   0.13  0.00  0.00  0.87  0.00  0.00  0.00  0.38  0.00
  YS02001622YS02001625    1.00   0.13  0.00  0.00  0.87  0.00  0.00  0.00  0.06  0.00
  YS02001625YS02001629    1.00   0.13  0.06  0.00  0.09  0.00  0.73  0.00  0.00  0.00
  YS02001629YS02163301    1.00   0.17  0.01  0.00  0.82  0.00  0.00  0.00  0.00  0.00
  YS02001633YS02163601    1.00   0.00  0.01  0.00  0.99  0.00  0.00  0.00  0.16  0.00
  YS02001641YS02001644    1.00   0.00  0.01  0.00  0.99  0.00  0.00  0.00  0.00  0.00
  YS02001644YS02001647    1.00   0.00  0.18  0.00  0.82  0.00  0.00  0.00  0.00  0.00
  YS02001647YS02001649    1.00   0.00  0.18  0.00  0.56  0.26  0.00  0.00  0.61  0.00
  YS02001649YS02001757    1.00   0.00  0.00  0.00  0.74  0.26  0.00  0.00  0.59  0.00
  YS02001652YS02001649    1.00   0.00  0.00  0.00  0.96  0.04  0.00  0.00  0.81  0.00
  YS02001655YS02001652    1.00   0.00  0.00  0.00  0.12  0.01  0.00  0.87  0.07  0.00
  YS02001658YS02001655    1.00   0.00  0.15  0.00  0.61  0.24  0.00  0.00  0.80  0.00
  YS02001661YS02001658    1.00   0.15  0.00  0.00  0.46  0.39  0.00  0.00  0.79  0.00
  YS02001664YS02001661    1.00   0.13  0.00  0.00  0.79  0.09  0.00  0.00  0.87  0.00
  YS02001745YS02001748    1.00   0.00  0.00  0.00  0.00  0.00  0.00  1.00  0.00  0.00
  YS02001748YS02001751    1.00   0.00  0.00  0.00  0.78  0.22  0.00  0.00  0.85  0.00
  YS02001751YS02001754    1.00   0.00  0.00  0.00  0.10  0.01  0.00  0.89  0.06  0.00
  YS02001754YS02001757    1.00   0.00  0.00  0.00  1.00  0.00  0.00  0.00  0.88  0.00
  YS02001757CaochengTiaoxuchi    1.00   0.00  0.00  0.00  0.99  0.01  0.00  0.00  0.86  0.00
  YS02001759YS02001757    1.00   0.00  0.00  0.00  1.00  0.00  0.00  0.00  0.66  0.00
  YS02001762YS02001759    1.00   0.00  0.00  0.00  1.00  0.00  0.00  0.00  0.04  0.00
  YS02001765YS02001762    1.00   0.00  0.00  0.00  1.00  0.00  0.00  0.00  0.80  0.00
  YS02001767YS02001765    1.00   0.00  0.00  0.00  1.00  0.00  0.00  0.00  0.00  0.00
  YS02001770YS02001767    1.00   0.00  0.00  0.00  1.00  0.00  0.00  0.00  0.01  0.00
  YS02001774YS02001770    1.00   0.00  0.14  0.00  0.58  0.00  0.28  0.00  0.04  0.00
  YS02001779YS02001774    1.00   0.00  0.00  0.00  1.00  0.00  0.00  0.00  0.85  0.00
  YS02001783YS02001784    1.00   0.00  0.19  0.00  0.81  0.00  0.00  0.00  0.59  0.00
  YS02001784YS02001785    1.00   0.00  0.00  0.00  1.00  0.00  0.00  0.00  0.18  0.00
  YS02001786YS02001788    1.00   0.00  0.00  0.00  0.78  0.22  0.00  0.00  0.00  0.00
  YS02001788YS02001790    1.00   0.00  0.00  0.00  0.19  0.81  0.00  0.00  0.90  0.00
  YS02001790YS02001791    1.00   0.00  0.00  0.00  0.01  0.99  0.00  0.00  0.17  0.00
  YS02001791YS02001793    1.00   0.00  0.00  0.00  0.00  1.00  0.00  0.00  0.00  0.00
  YS02001793JiankangQianchi    1.00   0.00  0.00  0.00  1.00  0.00  0.00  0.00  1.00  0.00
  YS02001882YS02001884    1.00   0.16  0.01  0.00  0.83  0.00  0.00  0.00  0.00  0.00
  YS02001884YS02001887    1.00   0.06  0.05  0.00  0.89  0.00  0.00  0.00  0.00  0.00
  YS02001887YS02001890    1.00   0.00  0.00  0.00  0.97  0.00  0.03  0.00  0.00  0.00
  YS02001890YS02001895    1.00   0.00  0.17  0.00  0.82  0.00  0.00  0.00  0.00  0.00
  YS02001895YS02001898    1.00   0.18  0.00  0.00  0.81  0.00  0.01  0.00  0.00  0.00
  YS02001898YS02001901    1.00   0.18  0.00  0.00  0.82  0.00  0.00  0.00  0.01  0.00
  YS02001901YS02001904    1.00   0.18  0.00  0.00  0.82  0.00  0.00  0.00  0.00  0.00
  YS02001904YS02001907    1.00   0.00  0.17  0.00  0.82  0.00  0.00  0.00  0.00  0.00
  YS02001907YS02006553    1.00   0.00  0.02  0.00  0.98  0.00  0.00  0.00  0.00  0.00
  YS02001910YS02001907    1.00   0.00  0.00  0.00  0.97  0.00  0.00  0.03  0.12  0.00
  YS02001915YS02001910    1.00   0.00  0.00  0.00  0.97  0.03  0.00  0.00  0.17  0.00
  YS02001918YS02001915    1.00   0.00  0.01  0.00  0.98  0.02  0.00  0.00  0.81  0.00
  YS02001920YS02001918    1.00   0.00  0.01  0.00  0.99  0.00  0.00  0.00  0.00  0.00
  YS02001923YS02001920    1.00   0.00  0.00  0.00  1.00  0.00  0.00  0.00  0.97  0.00
  YS02001926YS02001923    1.00   0.00  0.07  0.00  0.00  0.00  0.93  0.00  0.00  0.00
  YS02001929YS02001926    1.00   0.00  0.13  0.00  0.87  0.00  0.00  0.00  0.87  0.00
  YS02006553YS02006556    1.00   0.01  0.00  0.00  0.99  0.00  0.00  0.00  0.03  0.00
  YS02006556YS02006558    1.00   0.00  0.00  0.00  1.00  0.00  0.00  0.00  0.00  0.00
  YS02006558YS02006561    1.00   0.19  0.00  0.00  0.00  0.81  0.00  0.00  0.20  0.00
  YS02006561YS02001783    1.00   0.19  0.00  0.00  0.04  0.78  0.00  0.00  0.74  0.00
  YS02163301YS02001633    1.00   0.00  0.17  0.00  0.83  0.00  0.00  0.00  0.00  0.00
  YS02163601YS02164001    1.00   0.00  0.08  0.00  0.92  0.00  0.00  0.00  0.00  0.00
  YS02164001YS02001641    1.00   0.01  0.07  0.00  0.92  0.00  0.00  0.00  0.06  0.00
  
  
  *************************
  Conduit Surcharge Summary
  *************************
  
  ----------------------------------------------------------------------------
                                                           Hours        Hours 
                         --------- Hours Full --------   Above Full   Capacity
  Conduit                Both Ends  Upstream  Dnstream   Normal Flow   Limited
  ----------------------------------------------------------------------------
  WS02003072WS02003073        0.01      0.01      0.01      1.57         0.01
  WS02004404WS02004405        0.01      0.01      0.01      1.91         0.01
  WS02004405WS02004406        0.01      0.01      0.01      0.30         0.01
  WS02006109WS02006110        0.41      0.41      1.48      0.57         0.01
  WS02006110WS02006113        0.01      0.01      1.47      0.01         0.01
  WS02006111WS02006112        0.01      0.01      1.53      0.01         0.01
  WS02006112WS02006115        0.01      0.01      0.43      0.01         0.01
  WS02006228WS02006109        1.45      1.48      1.45      1.59         1.44
  WS02006229WS02006228        1.44      1.45      1.44      1.53         1.42
  WS02006230WS02006229        1.50      1.52      1.50      2.76         1.50
  WS02006231WS02006230        0.42      0.42      0.67      2.24         0.01
  WS02006232WS02006231        0.59      0.59      1.48      0.68         0.01
  WS02006234WS02006232        1.39      1.39      1.48      0.66         0.65
  WS02006235WS02006234        1.12      1.13      1.41      2.01         0.02
  WS02006238WS02006235        1.43      1.43      1.49      0.01         0.01
  WS02006239WS02006238        1.46      1.48      1.46      1.50         1.28
  WS02006240WS02006239        1.43      1.47      1.44      1.50         1.23
  WS02006242WS02006240        1.46      1.46      1.49      1.56         0.01
  WS02006243WS02006242        1.47      1.47      1.48      0.01         0.07
  WS02006245WS02006243        1.46      1.46      1.47      1.06         0.95
  WS02006247WS02006245        1.46      1.46      1.46      1.67         1.45
  WS02006248WS02006247        1.46      1.46      1.46      0.01         0.07
  WS02006249WS02006248        1.45      1.45      1.45      1.65         0.01
  WS02006251WS02006249        1.45      1.45      1.45      1.55         1.35
  WS02006252WS02006251        1.65      1.65      1.66      1.66         0.01
  WS02006256WS02006235        2.03      2.08      4.26      1.00         0.01
  YS02001580YS02001583        0.01      0.01      0.12      0.01         0.01
  YS02001583YS02001586        0.01      0.01      0.26      0.01         0.01
  YS02001586YS02001590        0.27      0.27      0.33      0.01         0.01
  YS02001590YS02001593        0.34      0.34      0.35      0.36         0.01
  YS02001593YS02001596        0.34      0.34      0.43      0.01         0.01
  YS02001596YS02001600        0.45      0.45      0.53      0.01         0.01
  YS02001600YS02001601        0.58      0.58      0.83      0.01         0.01
  YS02001601YS02001602        0.72      0.72      0.87      0.55         0.01
  YS02001602YS02001605        0.68      0.68      0.72      1.73         0.01
  YS02001605YS02001607        0.64      0.68      0.64      0.78         0.64
  YS02001607YS02001610        0.26      0.26      0.29      0.01         0.01
  YS02001610YS02001613        0.25      0.25      0.29      0.01         0.01
  YS02001613YS02001616        0.21      0.21      0.25      0.01         0.01
  YS02001616YS02001619        0.19      0.19      0.21      0.01         0.01
  YS02001619YS02001622        0.18      0.19      0.18      0.36         0.18
  YS02001622YS02001625        0.18      0.18      0.37      0.01         0.01
  YS02001625YS02001629        0.05      0.05      0.37      0.01         0.01
  YS02001629YS02163301        0.36      0.36      0.37      0.23         0.21
  YS02001633YS02163601        0.38      0.38      0.41      0.27         0.27
  YS02001641YS02001644        0.23      0.29      0.23      0.93         0.23
  YS02001644YS02001647        0.01      0.01      0.23      0.01         0.01
  YS02001649YS02001757        0.01      0.01      0.01      0.07         0.01
  YS02001757CaochengTiaoxuchi        0.01      0.01      1.04      0.04         0.01
  YS02001770YS02001767        0.01      0.01      0.01      0.19         0.01
  YS02001783YS02001784        0.01      0.09      0.01      0.26         0.01
  YS02001784YS02001785        0.01      0.01      0.01      0.44         0.01
  YS02001786YS02001788        0.01      0.01      0.01      0.34         0.01
  YS02001790YS02001791        0.01      0.01      0.01      0.02         0.01
  YS02001793JiankangQianchi        0.01      0.01      7.70      0.01         0.01
  YS02001884YS02001887        0.01      0.01      0.07      0.01         0.01
  YS02001887YS02001890        0.10      0.10      0.12      0.01         0.01
  YS02001890YS02001895        0.01      0.01      0.15      0.01         0.01
  YS02001898YS02001901        0.01      0.01      0.01      0.01         0.01
  YS02001901YS02001904        0.01      0.01      0.01      0.01         0.01
  YS02001904YS02001907        0.01      0.01      0.33      0.01         0.01
  YS02001907YS02006553        0.45      0.45      0.50      0.01         0.01
  YS02001910YS02001907        0.15      0.15      0.32      0.01         0.01
  YS02001915YS02001910        0.01      0.01      0.15      0.01         0.01
  YS02006553YS02006556        0.24      0.24      0.33      0.01         0.01
  YS02006556YS02006558        0.29      0.29      0.34      0.01         0.01
  YS02006558YS02006561        0.01      0.23      0.01      0.41         0.01
  YS02006561YS02001783        0.01      0.01      0.09      0.01         0.01
  YS02163301YS02001633        0.37      0.37      0.40      0.01         0.01
  YS02163601YS02164001        0.30      0.30      0.41      0.13         0.01
  YS02164001YS02001641        0.29      0.30      0.29      0.44         0.29
  
  
  ***************
  Pumping Summary
  ***************
  
  ---------------------------------------------------------------------------------------------------------
                                                  Min       Avg       Max     Total     Power    % Time Off
                        Percent   Number of      Flow      Flow      Flow    Volume     Usage    Pump Curve
  Pump                 Utilized   Start-Ups       LPS       LPS       LPS  10^6 ltr     Kw-hr    Low   High
  ---------------------------------------------------------------------------------------------------------
  CC-R1                   19.58          15      0.00    683.00    683.00     3.852     68.69    0.0   39.2
  CC-R2                    1.04           1      0.00    683.00    683.00     0.205      3.46    0.0  100.0
  CC-S1                   21.65          15      0.00    200.00    200.00     1.247      7.83    0.0    0.0
  CC-S2                   20.70          15      0.00    200.00    200.00     1.192      7.50    0.0    0.0
  JK-R1                    3.36           7      0.00   1000.00   1000.00     0.968     10.71    0.0    0.0
  JK-R2                    0.16           1      0.00   1000.00   1000.00     0.047      0.36    0.0    0.0
  JK-S                    12.42          22      0.00    300.00    300.00     1.073     14.25    0.0    0.0
  XR-1                    97.91           2      0.00     95.00     95.00     2.679      9.60    0.0    0.0
  XR-2                    93.94           2      0.00     95.00     95.00     2.570      8.76    0.0    0.0
  XR-3                     0.00           1      0.00     95.00     95.00     0.000      0.00    0.0    0.0
  XR-4                     0.00           1      0.00     95.00     95.00     0.000      0.00    0.0    0.0
  

  Analysis begun on:  Wed Nov  5 16:32:24 2025
  Analysis ended on:  Wed Nov  5 16:32:26 2025
  Total elapsed time: 00:00:02