
  EPA STORM WATER MANAGEMENT MODEL - VERSION 5.2 (Build 5.2.4)
  PYSWMM TOOLKIT API - VERSION v1.0 (2023-11-27)
  ------------------------------------------------------------

  WARNING 04: minimum elevation drop used for Conduit WS02004404WS02004405
  WARNING 03: negative offset ignored for Link YS02001904YS02001907
  
  ****************
  Analysis Options
  ****************
  Flow Units ............... LPS
  Process Models:
    Rainfall/Runoff ........ YES
    RDII ................... NO
    Snowmelt ............... NO
    Groundwater ............ NO
    Flow Routing ........... YES
    Ponding Allowed ........ NO
    Water Quality .......... NO
  Infiltration Method ...... HORTON
  Flow Routing Method ...... DYNWAVE
  Surcharge Method ......... EXTRAN
  Starting Date ............ 08/28/2015 08:00:00
  Ending Date .............. 08/28/2015 16:00:00
  Antecedent Dry Days ...... 8.0
  Report Time Step ......... 00:01:00
  Wet Time Step ............ 00:01:00
  Dry Time Step ............ 00:01:00
  Routing Time Step ........ 30.00 sec
  Variable Time Step ....... YES
  Maximum Trials ........... 8
  Number of Threads ........ 4
  Head Tolerance ........... 0.001500 m
  
  
  **************************        Volume         Depth
  Runoff Quantity Continuity     hectare-m            mm
  **************************     ---------       -------
  Initial LID Storage ......         0.049         1.488
  Total Precipitation ......         1.843        55.567
  Evaporation Loss .........         0.000         0.000
  Infiltration Loss ........         0.075         2.252
  Surface Runoff ...........         1.355        40.837
  Final Storage ............         0.464        13.982
  Continuity Error (%) .....        -0.029
  
  
  **************************        Volume        Volume
  Flow Routing Continuity        hectare-m      10^6 ltr
  **************************     ---------     ---------
  Dry Weather Inflow .......         0.602         6.020
  Wet Weather Inflow .......         1.355        13.546
  Groundwater Inflow .......         0.000         0.000
  RDII Inflow ..............         0.000         0.000
  External Inflow ..........         0.105         1.045
  External Outflow .........         1.760        17.597
  Flooding Loss ............         0.285         2.847
  Evaporation Loss .........         0.000         0.000
  Exfiltration Loss ........         0.000         0.000
  Initial Stored Volume ....         0.303         3.031
  Final Stored Volume ......         0.326         3.264
  Continuity Error (%) .....        -0.281
  
  
  *************************
  Highest Continuity Errors
  *************************
  Node YS02001583 (-7.07%)
  Node YS02001884 (5.09%)
  Node YS02001774 (1.81%)
  
  
  ***************************
  Time-Step Critical Elements
  ***************************
  Link WS02004404WS02004405 (32.34%)
  Link WS02006238WS02006235 (21.46%)
  Link WS02006252WS02006251 (9.20%)
  Link YS02001791YS02001793 (8.74%)
  Link WS02003066WSF200 (8.10%)
  
  
  ********************************
  Highest Flow Instability Indexes
  ********************************
  Link WS02006113WS02006111 (28)
  Link WS02006252WS02006251 (19)
  Link WS02006111WS02006112 (17)
  Link WS02006238WS02006235 (14)
  Link WS02006256WS02006235 (13)
  
  
  *********************************
  Most Frequent Nonconverging Nodes
  *********************************
  Node CC-1 (14.81%)
  Node CC-2 (14.81%)
  Node JK-1 (14.81%)
  Node JK-2 (14.81%)
  Node WSC (14.81%)
  
  
  *************************
  Routing Time Step Summary
  *************************
  Minimum Time Step           :     0.01 sec
  Average Time Step           :     3.43 sec
  Maximum Time Step           :     7.04 sec
  % of Time in Steady State   :     0.00
  Average Iterations per Step :     3.27
  % of Steps Not Converging   :    14.81
  Time Step Frequencies       :
     30.000 - 13.228 sec      :     0.00 %
     13.228 -  5.833 sec      :    24.71 %
      5.833 -  2.572 sec      :    34.14 %
      2.572 -  1.134 sec      :    24.31 %
      1.134 -  0.500 sec      :    16.84 %
  
  
  ***************************
  Subcatchment Runoff Summary
  ***************************
  
  ------------------------------------------------------------------------------------------------------------------------------
                            Total      Total      Total      Total     Imperv       Perv      Total       Total     Peak  Runoff
                           Precip      Runon       Evap      Infil     Runoff     Runoff     Runoff      Runoff   Runoff   Coeff
  Subcatchment                 mm         mm         mm         mm         mm         mm         mm    10^6 ltr      LPS
  ------------------------------------------------------------------------------------------------------------------------------
  sub60                     55.57       0.00       0.00       1.35      36.81       3.80      40.61        0.53   374.55   0.731
  sub61                     55.57       0.00       0.00       2.06      36.78       5.66      42.44        0.78   545.70   0.764
  sub62                     55.57       0.00       0.00       0.92      39.21       2.58      41.79        1.15   750.29   0.752
  sub63                     55.57       0.00       0.00       3.77      31.50       9.42      40.92        0.93   614.12   0.736
  sub64                     55.57       0.00       0.00       1.81      35.87       4.68      40.55        0.97   606.96   0.730
  sub65                     55.57       0.00       0.00       1.66      38.71       4.27      42.98        1.18   707.00   0.774
  sub66                     55.57       0.00       0.00       4.40      30.45       8.38      38.83        1.81   903.12   0.699
  sub67                     55.57       0.00       0.00       0.91      40.20       2.67      42.87        0.80   584.82   0.772
  sub68                     55.57       0.00       0.00       1.58      35.50       4.34      39.84        1.10   746.73   0.717
  sub69                     55.57       0.00       0.00       1.43      37.35       5.17      42.52        1.57   916.31   0.765
  sub70                     55.57       0.00       0.00       4.82      29.92      10.64      40.56        1.17   522.68   0.730
  sub71                     55.57       0.00       0.00       0.84      35.62       2.33      37.95        0.99   615.76   0.683
  sub72                     55.57       0.00       0.00       0.80      38.47       2.17      40.64        0.56   316.23   0.731
  

  ***********************
  LID Performance Summary
  ***********************

  --------------------------------------------------------------------------------------------------------------------
                                         Total      Evap     Infil   Surface    Drain    Initial     Final  Continuity
                                        Inflow      Loss      Loss   Outflow   Outflow   Storage   Storage       Error
  Subcatchment      LID Control             mm        mm        mm        mm        mm        mm        mm           %
  --------------------------------------------------------------------------------------------------------------------
  sub60             GreenRoof            55.57      0.00      0.00      0.00      0.00      7.05     62.65       -0.05
  sub61             GreenRoof            55.57      0.00      0.00      0.00      0.00      7.05     62.65       -0.05
  sub62             GreenRoof            55.57      0.00      0.00      0.00      0.00      7.05     62.65       -0.05
  sub63             GreenRoof            55.57      0.00      0.00      0.00      0.00      7.05     62.65       -0.05
  sub64             GreenRoof            55.57      0.00      0.00      0.00      0.00      7.05     62.65       -0.05
  sub65             GreenRoof            55.57      0.00      0.00      0.00      0.00      7.05     62.65       -0.05
  sub66             GreenRoof            55.57      0.00      0.00      0.00      0.00      7.05     62.65       -0.05
  sub67             GreenRoof            55.57      0.00      0.00      0.00      0.00      7.05     62.65       -0.05
  sub68             GreenRoof            55.57      0.00      0.00      0.00      0.00      7.05     62.65       -0.05
  sub69             GreenRoof            55.57      0.00      0.00      0.00      0.00      7.05     62.65       -0.05
  sub70             GreenRoof            55.57      0.00      0.00      0.00      0.00      7.05     62.65       -0.05
  sub71             GreenRoof            55.57      0.00      0.00      0.00      0.00      7.05     62.65       -0.05
  sub72             GreenRoof            55.57      0.00      0.00      0.00      0.00      7.05     62.65       -0.05
  
  ******************
  Node Depth Summary
  ******************
  
  ---------------------------------------------------------------------------------
                                 Average  Maximum  Maximum  Time of Max    Reported
                                   Depth    Depth      HGL   Occurrence   Max Depth
  Node                 Type       Meters   Meters   Meters  days hr:min      Meters
  ---------------------------------------------------------------------------------
  WS02001211           JUNCTION     0.60     0.64     5.48     0  02:59        0.64
  WS02001212           JUNCTION     0.33     0.38     5.45     0  02:57        0.38
  WS02001213           JUNCTION     0.53     0.65     5.41     0  02:54        0.65
  WS02003059           JUNCTION     0.59     0.72     5.40     0  02:55        0.72
  WS02003060           JUNCTION     0.30     0.45     5.38     0  02:55        0.45
  WS02003066           JUNCTION     0.16     0.30     5.85     0  02:52        0.30
  WS02003067           JUNCTION     0.43     0.70     6.02     0  02:52        0.70
  WS02003069           JUNCTION     0.33     0.51     5.10     0  02:53        0.51
  WS02003072           JUNCTION     0.40     0.57     4.95     0  02:57        0.57
  WS02003073           JUNCTION     0.23     0.35     4.41     0  02:58        0.35
  WS02004138           JUNCTION     0.13     0.14     7.39     0  00:29        0.14
  WS02004139           JUNCTION     0.54     0.58     5.49     0  02:58        0.58
  WS02004401           JUNCTION     0.51     0.85     6.85     0  02:50        0.85
  WS02004402           JUNCTION     0.55     0.88     6.84     0  02:50        0.88
  WS02004403           JUNCTION     0.57     0.89     6.82     0  02:50        0.89
  WS02004404           JUNCTION     0.64     0.96     6.81     0  02:50        0.96
  WS02004405           JUNCTION     0.64     0.96     6.81     0  02:50        0.96
  WS02004406           JUNCTION     0.65     0.96     6.79     0  02:50        0.96
  WS02004407           JUNCTION     0.13     0.30     6.61     0  02:51        0.30
  WS02004409           JUNCTION     0.30     0.67     6.44     0  02:51        0.67
  WS02004410           JUNCTION     0.33     0.68     6.40     0  02:51        0.68
  WS02004411           JUNCTION     0.36     0.69     6.37     0  02:51        0.69
  WS02004412           JUNCTION     0.38     0.70     6.34     0  02:52        0.70
  WS02004413           JUNCTION     0.54     0.86     6.33     0  02:52        0.86
  WS02006109           JUNCTION     0.57     1.55     8.16     0  02:34        1.45
  WS02006110           JUNCTION     0.57     1.23     7.82     0  02:34        0.98
  WS02006111           JUNCTION     0.14     0.29     6.99     0  02:24        0.29
  WS02006112           JUNCTION     0.66     1.10     6.98     0  02:22        1.04
  WS02006113           JUNCTION     0.21     0.46     7.35     0  02:04        0.46
  WS02006115           JUNCTION     0.40     0.75     6.89     0  02:49        0.75
  WS02006116           JUNCTION     0.48     0.83     6.87     0  02:49        0.83
  WS02006228           JUNCTION     0.56     1.82     8.47     0  02:34        1.71
  WS02006229           JUNCTION     0.53     2.00     8.69     0  02:34        2.00
  WS02006230           JUNCTION     0.52     2.38     9.12     0  02:34        2.38
  WS02006231           JUNCTION     0.34     2.12     9.24     0  02:34        2.12
  WS02006232           JUNCTION     0.46     2.01     9.05     0  02:34        2.01
  WS02006234           JUNCTION     0.39     1.63     8.79     0  02:34        1.58
  WS02006235           JUNCTION     0.43     1.88     9.04     0  02:15        1.55
  WS02006238           JUNCTION     0.45     1.94     9.09     0  02:15        1.64
  WS02006239           JUNCTION     0.41     1.88     9.09     0  02:15        1.84
  WS02006240           JUNCTION     0.39     1.86     9.15     0  02:02        1.86
  WS02006242           JUNCTION     0.44     1.55     8.82     0  02:02        1.55
  WS02006243           JUNCTION     0.37     1.48     8.90     0  02:02        1.48
  WS02006245           JUNCTION     0.37     1.56     9.04     0  02:02        1.56
  WS02006247           JUNCTION     0.39     1.47     8.97     0  02:02        1.47
  WS02006248           JUNCTION     0.36     1.10     8.69     0  02:02        1.10
  WS02006249           JUNCTION     0.38     1.09     8.69     0  02:01        1.09
  WS02006251           JUNCTION     0.38     2.08     9.75     0  02:02        2.08
  WS02006252           JUNCTION     0.26     1.50     9.74     0  00:00        1.50
  WS02006256           JUNCTION     1.02     2.35     9.28     0  00:00        2.35
  WSF200               JUNCTION     0.13     0.31     5.54     0  02:54        0.31
  YS02001580           JUNCTION     0.10     1.05     9.59     0  01:57        0.77
  YS02001583           JUNCTION     0.14     1.14     9.64     0  01:57        0.83
  YS02001586           JUNCTION     0.23     1.13     9.30     0  01:57        1.13
  YS02001590           JUNCTION     0.33     1.40     9.26     0  01:55        1.38
  YS02001593           JUNCTION     0.27     1.46     9.32     0  01:55        1.29
  YS02001596           JUNCTION     0.38     1.68     9.10     0  01:57        1.66
  YS02001600           JUNCTION     0.47     1.87     9.00     0  01:55        1.86
  YS02001601           JUNCTION     0.66     2.06     8.90     0  01:55        2.06
  YS02001602           JUNCTION     0.56     1.87     8.77     0  01:56        1.87
  YS02001605           JUNCTION     0.51     1.78     8.68     0  01:56        1.78
  YS02001607           JUNCTION     0.48     1.68     8.53     0  01:57        1.65
  YS02001610           JUNCTION     0.53     1.68     8.48     0  01:56        1.68
  YS02001613           JUNCTION     0.49     1.70     8.54     0  01:57        1.70
  YS02001616           JUNCTION     0.42     1.61     8.52     0  01:56        1.61
  YS02001619           JUNCTION     0.40     1.61     8.54     0  01:56        1.61
  YS02001622           JUNCTION     0.38     1.62     8.52     0  01:56        1.58
  YS02001625           JUNCTION     0.64     1.78     8.38     0  01:57        1.78
  YS02001629           JUNCTION     0.52     1.85     8.40     0  01:56        1.85
  YS02001633           JUNCTION     0.59     2.05     8.50     0  02:02        2.05
  YS02001641           JUNCTION     0.56     1.96     8.40     0  02:00        1.93
  YS02001644           JUNCTION     0.55     1.92     8.35     0  02:00        1.92
  YS02001647           JUNCTION     0.34     1.80     8.41     0  02:00        1.69
  YS02001649           JUNCTION     0.38     2.00     8.39     0  02:00        1.84
  YS02001652           JUNCTION     0.27     1.92     8.52     0  02:00        1.73
  YS02001655           JUNCTION     0.20     1.95     8.80     0  02:00        1.54
  YS02001658           JUNCTION     0.14     1.96     9.10     0  02:00        1.24
  YS02001661           JUNCTION     0.16     1.42     8.82     0  02:01        1.07
  YS02001664           JUNCTION     0.07     0.66     8.58     0  02:01        0.53
  YS02001745           JUNCTION     0.07     0.97     8.49     0  02:01        0.87
  YS02001748           JUNCTION     0.13     1.89     8.97     0  02:01        1.10
  YS02001751           JUNCTION     0.17     1.83     8.71     0  02:01        1.27
  YS02001754           JUNCTION     0.23     1.84     8.44     0  02:01        1.55
  YS02001757           JUNCTION     0.39     2.05     8.31     0  02:01        1.87
  YS02001759           JUNCTION     0.34     2.01     8.38     0  02:01        1.90
  YS02001762           JUNCTION     0.33     2.05     8.45     0  02:01        1.91
  YS02001765           JUNCTION     0.31     2.03     8.48     0  02:01        1.87
  YS02001767           JUNCTION     0.30     1.99     8.48     0  02:01        1.84
  YS02001770           JUNCTION     0.32     1.95     8.44     0  02:01        1.90
  YS02001774           JUNCTION     0.38     2.00     8.43     0  02:01        1.96
  YS02001779           JUNCTION     0.21     1.68     8.37     0  01:59        1.68
  YS02001783           JUNCTION     0.27     1.36     7.50     0  01:59        1.23
  YS02001784           JUNCTION     0.29     1.22     7.29     0  01:59        1.11
  YS02001786           JUNCTION     0.24     0.96     6.99     0  01:59        0.87
  YS02001788           JUNCTION     0.18     0.62     6.60     0  02:00        0.62
  YS02001790           JUNCTION     0.21     0.72     6.37     0  02:04        0.72
  YS02001791           JUNCTION     0.13     0.44     5.91     0  02:01        0.43
  YS02001793           JUNCTION     0.07     0.31     5.14     0  02:01        0.27
  YS02001882           JUNCTION     0.34     1.83     8.55     0  01:58        1.73
  YS02001884           JUNCTION     0.42     1.93     8.55     0  01:58        1.81
  YS02001887           JUNCTION     0.50     1.95     8.49     0  01:58        1.87
  YS02001890           JUNCTION     0.53     1.81     8.32     0  01:58        1.81
  YS02001895           JUNCTION     0.31     1.59     8.33     0  01:58        1.57
  YS02001898           JUNCTION     0.31     1.59     8.33     0  01:59        1.56
  YS02001901           JUNCTION     0.42     1.69     8.30     0  01:59        1.67
  YS02001904           JUNCTION     0.40     1.65     8.28     0  01:59        1.64
  YS02001907           JUNCTION     0.72     1.96     8.25     0  01:59        1.96
  YS02001910           JUNCTION     0.52     2.02     8.53     0  02:00        1.85
  YS02001915           JUNCTION     0.33     2.00     8.71     0  02:00        1.73
  YS02001918           JUNCTION     0.17     1.81     8.88     0  02:00        1.43
  YS02001920           JUNCTION     0.25     2.14     9.15     0  02:00        1.51
  YS02001923           JUNCTION     0.13     2.03     9.29     0  02:00        1.29
  YS02001926           JUNCTION     0.17     1.90     9.35     0  02:00        1.14
  YS02001929           JUNCTION     0.09     1.78     9.47     0  02:00        0.92
  YS02006553           JUNCTION     0.72     2.01     8.29     0  01:59        1.99
  YS02006556           JUNCTION     0.69     2.01     8.32     0  01:59        1.97
  YS02006558           JUNCTION     0.73     2.07     8.33     0  01:59        2.05
  YS02006561           JUNCTION     0.17     1.04     7.70     0  01:59        0.88
  YS02163301           JUNCTION     0.54     1.93     8.45     0  02:02        1.93
  YS02163601           JUNCTION     0.62     2.05     8.45     0  02:00        2.00
  YS02164001           JUNCTION     0.55     1.97     8.43     0  02:00        1.92
  CC-1                 OUTFALL      0.00     0.00     0.00     0  00:00        0.00
  CC-2                 OUTFALL      0.00     0.00     0.00     0  00:00        0.00
  JK-1                 OUTFALL      0.00     0.00     0.00     0  00:00        0.00
  JK-2                 OUTFALL      0.00     0.00     0.00     0  00:00        0.00
  WSC                  OUTFALL      0.23     0.35     1.02     0  02:58        0.35
  CC-storage           STORAGE      0.81     1.57     7.07     0  02:22        1.57
  JK-storage           STORAGE      2.55     4.24     5.04     0  02:10        4.22
  XR-storage           STORAGE      7.83     9.26     7.26     0  08:00        9.26
  
  
  *******************
  Node Inflow Summary
  *******************
  
  -------------------------------------------------------------------------------------------------
                                  Maximum  Maximum                  Lateral       Total        Flow
                                  Lateral    Total  Time of Max      Inflow      Inflow     Balance
                                   Inflow   Inflow   Occurrence      Volume      Volume       Error
  Node                 Type           LPS      LPS  days hr:min    10^6 ltr    10^6 ltr     Percent
  -------------------------------------------------------------------------------------------------
  WS02001211           JUNCTION      7.35   201.30     0  03:04       0.212        5.44       0.611
  WS02001212           JUNCTION      0.00   202.40     0  03:04           0        5.41       0.290
  WS02001213           JUNCTION      0.00   203.98     0  03:05           0        5.39       0.331
  WS02003059           JUNCTION      0.00   210.00     0  03:02           0        5.38       0.592
  WS02003060           JUNCTION     16.53   750.89     0  02:54       0.476        8.97       0.156
  WS02003066           JUNCTION      0.00   536.84     0  02:52           0        3.14       0.039
  WS02003067           JUNCTION      0.00   536.80     0  02:52           0        3.15       0.127
  WS02003069           JUNCTION      0.32   750.57     0  02:55     0.00922        8.95       0.165
  WS02003072           JUNCTION      0.00   750.47     0  02:57           0        8.94       0.226
  WS02003073           JUNCTION      1.82   752.29     0  02:57      0.0524        8.97       0.233
  WS02004138           JUNCTION      0.00   380.00     0  00:00           0        5.25       0.053
  WS02004139           JUNCTION      0.32   191.16     0  00:29     0.00924        5.26       0.509
  WS02004401           JUNCTION      0.00   539.59     0  02:50           0        3.24       0.305
  WS02004402           JUNCTION      0.00   539.61     0  02:50           0        3.23       0.311
  WS02004403           JUNCTION      0.00   538.59     0  02:50           0        3.22       0.305
  WS02004404           JUNCTION      0.16   538.83     0  02:50     0.00467        3.22       0.265
  WS02004405           JUNCTION      0.04   538.67     0  02:50      0.0011        3.21       0.372
  WS02004406           JUNCTION      0.00   538.63     0  02:50           0         3.2       0.637
  WS02004407           JUNCTION      0.00   538.21     0  02:50           0        3.18       0.029
  WS02004409           JUNCTION      0.00   537.90     0  02:51           0        3.18       0.071
  WS02004410           JUNCTION      0.00   537.56     0  02:51           0        3.17       0.123
  WS02004411           JUNCTION      0.00   537.30     0  02:51           0        3.17       0.161
  WS02004412           JUNCTION      0.00   537.21     0  02:51           0        3.16       0.220
  WS02004413           JUNCTION      0.00   537.00     0  02:52           0        3.16       0.397
  WS02006109           JUNCTION      1.23   568.96     0  02:34      0.0354        3.29       0.277
  WS02006110           JUNCTION      0.00   570.69     0  02:34           0        3.28       0.188
  WS02006111           JUNCTION      0.00   560.90     0  02:04           0        3.27       0.020
  WS02006112           JUNCTION      0.00   545.17     0  02:24           0        3.27       0.533
  WS02006113           JUNCTION      0.00   567.92     0  02:06           0        3.27       0.049
  WS02006115           JUNCTION      0.00   555.62     0  02:28           0        3.25       0.190
  WS02006116           JUNCTION      0.00   541.12     0  02:29           0        3.25       0.149
  WS02006228           JUNCTION      0.00   568.37     0  02:34           0        3.26       0.133
  WS02006229           JUNCTION      0.00   568.13     0  02:34           0        3.26       0.144
  WS02006230           JUNCTION     10.28   590.63     0  02:10       0.296        3.27       0.148
  WS02006231           JUNCTION      0.00   573.97     0  02:21           0        2.97      -0.106
  WS02006232           JUNCTION      0.00   573.18     0  02:21           0        2.98       0.324
  WS02006234           JUNCTION      0.00   570.15     0  02:21           0        2.97      -0.292
  WS02006235           JUNCTION      0.00   564.80     0  02:21           0        3.06       0.268
  WS02006238           JUNCTION      0.00   424.57     0  02:25           0        2.19      -0.182
  WS02006239           JUNCTION      0.00   422.74     0  02:15           0        2.15      -0.055
  WS02006240           JUNCTION      0.00   419.45     0  02:20           0        2.11      -0.080
  WS02006242           JUNCTION      0.00   419.74     0  02:56           0        2.08      -0.164
  WS02006243           JUNCTION      0.00   419.22     0  02:25           0        2.06      -0.071
  WS02006245           JUNCTION      0.00   419.83     0  02:25           0        2.06       0.491
  WS02006247           JUNCTION      0.00   419.99     0  02:25           0        2.06       0.005
  WS02006248           JUNCTION      0.00   419.78     0  02:30           0        2.05      -0.166
  WS02006249           JUNCTION      0.00   458.97     0  00:00           0        2.25       0.614
  WS02006251           JUNCTION      0.08   419.56     0  03:20     0.00222        2.25       0.018
  WS02006252           JUNCTION      0.00   400.00     0  00:00           0        2.24      -0.361
  WS02006256           JUNCTION      0.00   300.00     0  00:00           0        1.29      -0.735
  WSF200               JUNCTION      0.00   536.87     0  02:52           0        3.14       0.014
  YS02001580           JUNCTION      0.00   125.56     0  01:56           0     0.00449       2.039
  YS02001583           JUNCTION      0.00   211.97     0  01:57           0      0.0153      -6.604
  YS02001586           JUNCTION    522.68   522.68     0  02:04        1.17        1.18       0.120
  YS02001590           JUNCTION      0.00   318.63     0  02:02           0        1.04      -0.041
  YS02001593           JUNCTION      0.00   318.17     0  02:06           0        1.04       0.007
  YS02001596           JUNCTION      0.00   318.08     0  02:06           0        1.04      -0.002
  YS02001600           JUNCTION      0.00   318.05     0  02:01           0        1.04      -0.003
  YS02001601           JUNCTION    916.31  1234.00     0  02:03        1.57        2.61       0.018
  YS02001602           JUNCTION      0.00   531.25     0  01:56           0        1.86       0.013
  YS02001605           JUNCTION      0.00   530.88     0  01:56           0        1.78       0.015
  YS02001607           JUNCTION      0.00   530.39     0  01:56           0        1.78       0.100
  YS02001610           JUNCTION      0.00   541.14     0  01:56           0        1.79       0.117
  YS02001613           JUNCTION      0.00   546.98     0  01:56           0        1.53       0.095
  YS02001616           JUNCTION      0.00   552.92     0  01:56           0        1.53       0.019
  YS02001619           JUNCTION    903.12   938.78     0  01:58        1.81        3.33      -0.006
  YS02001622           JUNCTION      0.00   939.54     0  01:58           0        3.31      -0.006
  YS02001625           JUNCTION      0.00  1012.00     0  02:04           0        3.34       0.259
  YS02001629           JUNCTION      0.00   945.34     0  01:56           0        2.84       0.011
  YS02001633           JUNCTION    707.20  1412.19     0  01:58        1.19        3.98       0.081
  YS02001641           JUNCTION      0.00  1410.62     0  01:58           0        3.95       0.068
  YS02001644           JUNCTION    607.00  1826.41     0  01:58       0.975        4.92       0.063
  YS02001647           JUNCTION      0.00  1825.65     0  01:58           0        4.84       0.009
  YS02001649           JUNCTION      0.00  2023.53     0  01:58           0        5.78       0.005
  YS02001652           JUNCTION      0.00   800.91     0  02:02           0       0.935      -0.094
  YS02001655           JUNCTION      0.15   799.82     0  02:02     0.00443       0.934      -0.006
  YS02001658           JUNCTION      0.00   798.48     0  02:02           0        0.93      -0.005
  YS02001661           JUNCTION      0.00   743.05     0  02:02           0        0.93      -0.035
  YS02001664           JUNCTION    614.12   614.12     0  02:02       0.929       0.929      -0.016
  YS02001745           JUNCTION    374.56   564.94     0  02:00       0.534       0.535       0.252
  YS02001748           JUNCTION      0.04   560.74     0  02:01      0.0013       0.538      -0.462
  YS02001751           JUNCTION      0.01   530.67     0  02:01    0.000317       0.549       0.141
  YS02001754           JUNCTION      0.26   533.40     0  02:01     0.00749       0.566      -0.247
  YS02001757           JUNCTION      0.00  3244.31     0  02:01           0        8.27       0.024
  YS02001759           JUNCTION    545.74  1254.46     0  02:01        0.78        1.94      -0.018
  YS02001762           JUNCTION      0.00   735.95     0  02:03           0        1.16       0.007
  YS02001765           JUNCTION      0.00   734.48     0  02:03           0        1.15       0.018
  YS02001767           JUNCTION      0.54   734.10     0  02:03      0.0154        1.15       0.004
  YS02001770           JUNCTION    750.44   750.44     0  02:02        1.15        1.19      -0.057
  YS02001774           JUNCTION      0.00   489.80     0  01:59           0      0.0706       1.843
  YS02001779           JUNCTION      0.01   498.54     0  01:59    0.000144      0.0281      -2.188
  YS02001783           JUNCTION      0.00  1156.77     0  02:01           0        3.07       0.007
  YS02001784           JUNCTION      1.06  1158.64     0  02:00      0.0305         3.1       0.016
  YS02001786           JUNCTION      0.06  1158.18     0  02:00     0.00162         3.1       0.021
  YS02001788           JUNCTION      0.07  1159.22     0  02:01     0.00204         3.1       0.009
  YS02001790           JUNCTION      0.15  1174.73     0  02:00     0.00446        3.11       0.019
  YS02001791           JUNCTION      0.00  1285.06     0  02:04           0        3.11      -0.016
  YS02001793           JUNCTION      0.00  1245.13     0  02:01           0        3.11       0.006
  YS02001882           JUNCTION      0.00    41.32     0  01:58           0      0.0124       5.052
  YS02001884           JUNCTION      0.00    82.24     0  01:58           0      0.0481       5.364
  YS02001887           JUNCTION    585.27   585.82     0  02:01        0.81       0.844       0.527
  YS02001890           JUNCTION      0.00   585.34     0  02:01           0       0.803       0.632
  YS02001895           JUNCTION      0.00   515.41     0  02:03           0       0.785       0.203
  YS02001898           JUNCTION      0.00   515.29     0  02:03           0       0.783       0.047
  YS02001901           JUNCTION      0.00   514.39     0  02:03           0       0.786       0.421
  YS02001904           JUNCTION      0.00   515.08     0  02:03           0        0.79       0.352
  YS02001907           JUNCTION      0.00  1556.27     0  02:01           0        2.41       0.750
  YS02001910           JUNCTION      0.00  1054.31     0  02:01           0        1.63       0.452
  YS02001915           JUNCTION    615.78  1054.02     0  02:01       0.993        1.68       0.091
  YS02001918           JUNCTION      0.00   464.76     0  02:00           0       0.715       0.003
  YS02001920           JUNCTION      2.87   460.59     0  02:00      0.0827       0.697       0.074
  YS02001923           JUNCTION      0.04   524.22     0  01:59     0.00109       0.598      -0.111
  YS02001926           JUNCTION      0.05   765.88     0  02:00      0.0015       0.578      -0.158
  YS02001929           JUNCTION    316.23   640.93     0  02:00       0.559       0.563       0.010
  YS02006553           JUNCTION      0.00   792.07     0  02:13           0        1.99       0.590
  YS02006556           JUNCTION      0.00   792.42     0  02:13           0           2       0.404
  YS02006558           JUNCTION    747.61  1160.70     0  01:59        1.12         3.1       0.116
  YS02006561           JUNCTION      0.00  1157.13     0  02:00           0        3.07      -0.006
  YS02163301           JUNCTION      0.00   939.47     0  01:58           0        2.83       0.050
  YS02163601           JUNCTION      0.11  1412.56     0  01:58     0.00317        3.94       0.121
  YS02164001           JUNCTION      0.00  1413.13     0  01:58           0        3.94       0.052
  CC-1                 OUTFALL       0.00   683.00     0  00:00           0        3.49       0.000
  CC-2                 OUTFALL       0.00   683.00     0  00:00           0        3.29       0.000
  JK-1                 OUTFALL       0.00  1000.00     0  00:00           0        1.82       0.000
  JK-2                 OUTFALL       0.00  1000.00     0  00:00           0      0.0484       0.000
  WSC                  OUTFALL       0.00   752.28     0  02:58           0        8.95       0.000
  CC-storage           STORAGE       0.00  3247.23     0  02:01           0        10.5      -0.242
  JK-storage           STORAGE       0.00  1221.81     0  02:01           0        3.26      -0.235
  XR-storage           STORAGE     200.00   200.00     0  00:00        5.76        6.36       0.001
  
  
  **********************
  Node Surcharge Summary
  **********************
  
  Surcharging occurs when water rises above the top of the highest conduit.
  ---------------------------------------------------------------------
                                               Max. Height   Min. Depth
                                   Hours       Above Crown    Below Rim
  Node                 Type      Surcharged         Meters       Meters
  ---------------------------------------------------------------------
  WS02006109           JUNCTION        1.34          0.726        1.094
  WS02006110           JUNCTION        0.60          0.323        1.527
  WS02006112           JUNCTION        0.69          0.096        1.584
  WS02006228           JUNCTION        1.33          0.988        1.212
  WS02006229           JUNCTION        1.34          1.195        1.255
  WS02006230           JUNCTION        0.61          1.299        0.271
  WS02006231           JUNCTION        0.72          1.405        0.125
  WS02006232           JUNCTION        1.38          1.307        0.173
  WS02006234           JUNCTION        0.89          0.915        0.325
  WS02006235           JUNCTION        1.31          1.169        0.121
  WS02006238           JUNCTION        1.34          1.222        0.208
  WS02006239           JUNCTION        1.30          1.144        0.146
  WS02006240           JUNCTION        1.31          1.151        0.239
  WS02006242           JUNCTION        1.34          0.820        0.000
  WS02006243           JUNCTION        1.30          0.770        0.000
  WS02006245           JUNCTION        1.30          0.850        0.000
  WS02006247           JUNCTION        1.30          0.760        0.000
  WS02006248           JUNCTION        1.30          0.380        0.000
  WS02006249           JUNCTION        1.30          0.390        0.000
  WS02006251           JUNCTION        0.78          1.053        0.127
  WS02006252           JUNCTION        1.49          1.100        0.000
  WS02006256           JUNCTION        3.92          2.050        0.000
  YS02001580           JUNCTION        0.41          0.450        0.000
  YS02001583           JUNCTION        0.42          0.500        0.000
  YS02001586           JUNCTION        0.53          0.510        0.000
  YS02001590           JUNCTION        0.59          0.750        0.000
  YS02001593           JUNCTION        0.60          0.840        0.000
  YS02001596           JUNCTION        0.69          0.951        0.119
  YS02001600           JUNCTION        0.82          1.190        0.000
  YS02001601           JUNCTION        1.17          1.440        0.000
  YS02001602           JUNCTION        1.04          1.270        0.000
  YS02001605           JUNCTION        0.99          1.180        0.000
  YS02001607           JUNCTION        0.57          0.680        0.000
  YS02001610           JUNCTION        0.59          0.680        0.000
  YS02001613           JUNCTION        0.56          0.699        0.001
  YS02001616           JUNCTION        0.53          0.610        0.000
  YS02001619           JUNCTION        0.51          0.610        0.000
  YS02001622           JUNCTION        0.51          0.620        0.000
  YS02001625           JUNCTION        0.67          0.780        0.000
  YS02001629           JUNCTION        0.47          0.470        0.000
  YS02001633           JUNCTION        0.69          1.028        0.032
  YS02001641           JUNCTION        0.64          0.963        0.137
  YS02001644           JUNCTION        0.60          0.920        0.000
  YS02001647           JUNCTION        0.43          0.804        0.096
  YS02001649           JUNCTION        0.53          1.000        0.050
  YS02001652           JUNCTION        0.36          0.894        0.236
  YS02001655           JUNCTION        0.24          0.951        0.249
  YS02001658           JUNCTION        0.10          0.962        0.338
  YS02001661           JUNCTION        0.01          0.348        1.042
  YS02001748           JUNCTION        0.02          0.814        0.376
  YS02001751           JUNCTION        0.15          0.829        0.371
  YS02001754           JUNCTION        0.28          0.787        0.363
  YS02001757           JUNCTION        0.59          1.047        0.163
  YS02001759           JUNCTION        0.49          1.013        0.197
  YS02001762           JUNCTION        0.47          1.049        0.101
  YS02001765           JUNCTION        0.43          1.035        0.065
  YS02001767           JUNCTION        0.40          0.995        0.035
  YS02001770           JUNCTION        0.37          0.920        0.000
  YS02001774           JUNCTION        0.45          1.004        0.046
  YS02001779           JUNCTION        0.28          0.680        0.000
  YS02001783           JUNCTION        0.37          0.561        1.039
  YS02001784           JUNCTION        0.34          0.420        1.070
  YS02001786           JUNCTION        0.25          0.158        1.272
  YS02001882           JUNCTION        0.32          0.830        0.000
  YS02001884           JUNCTION        0.33          0.870        0.000
  YS02001887           JUNCTION        0.36          0.901        0.049
  YS02001890           JUNCTION        0.37          0.760        0.000
  YS02001895           JUNCTION        0.31          0.585        0.165
  YS02001898           JUNCTION        0.30          0.561        0.179
  YS02001901           JUNCTION        0.35          0.694        0.176
  YS02001904           JUNCTION        0.34          0.647        0.203
  YS02001907           JUNCTION        0.54          0.950        0.000
  YS02001910           JUNCTION        0.39          1.025        0.075
  YS02001915           JUNCTION        0.32          0.997        0.003
  YS02001918           JUNCTION        0.24          0.810        0.000
  YS02001920           JUNCTION        0.25          1.140        0.000
  YS02001923           JUNCTION        0.01          0.820        0.000
  YS02001926           JUNCTION        0.01          0.900        0.000
  YS02001929           JUNCTION        0.01          0.780        0.000
  YS02006553           JUNCTION        0.55          1.005        0.185
  YS02006556           JUNCTION        0.47          0.970        0.380
  YS02006558           JUNCTION        0.46          0.966        0.434
  YS02006561           JUNCTION        0.22          0.245        0.905
  YS02163301           JUNCTION        0.67          0.935        0.095
  YS02163601           JUNCTION        0.71          1.053        0.027
  YS02164001           JUNCTION        0.64          0.971        0.129
  
  
  *********************
  Node Flooding Summary
  *********************
  
  Flooding refers to all water that overflows a node, whether it ponds or not.
  --------------------------------------------------------------------------
                                                             Total   Maximum
                                 Maximum   Time of Max       Flood    Ponded
                        Hours       Rate    Occurrence      Volume     Depth
  Node                 Flooded       LPS   days hr:min    10^6 ltr    Meters
  --------------------------------------------------------------------------
  WS02006242              0.01     28.84      0  02:15       0.000     0.000
  WS02006243              0.01      1.56      0  02:02       0.000     0.000
  WS02006245              0.01      1.29      0  02:02       0.000     0.000
  WS02006247              0.01      1.06      0  02:02       0.000     0.000
  WS02006248              0.01     21.50      0  02:15       0.000     0.000
  WS02006249              0.76    118.79      0  02:02       0.183     0.000
  WS02006252              0.01    249.13      0  03:20       0.001     0.000
  WS02006256              1.19    293.19      0  00:00       0.374     0.000
  YS02001580              0.01    102.86      0  01:57       0.000     0.000
  YS02001583              0.01    173.97      0  01:57       0.000     0.000
  YS02001586              0.33    205.13      0  02:04       0.131     0.000
  YS02001590              0.01     56.44      0  01:55       0.000     0.000
  YS02001593              0.01     15.43      0  01:55       0.000     0.000
  YS02001600              0.01      4.01      0  01:55       0.000     0.000
  YS02001601              0.47    836.09      0  02:03       0.757     0.000
  YS02001602              0.38     62.16      0  02:11       0.075     0.000
  YS02001605              0.01      1.97      0  01:57       0.000     0.000
  YS02001607              0.01     13.49      0  01:57       0.000     0.000
  YS02001610              0.32    397.03      0  02:04       0.272     0.000
  YS02001616              0.01     24.56      0  01:57       0.000     0.000
  YS02001619              0.01     40.42      0  01:56       0.000     0.000
  YS02001622              0.01    176.80      0  01:56       0.000     0.000
  YS02001625              0.30   1011.73      0  02:04       0.534     0.000
  YS02001629              0.06    234.68      0  01:56       0.017     0.000
  YS02001644              0.07    469.56      0  02:02       0.061     0.000
  YS02001770              0.01      4.25      0  02:01       0.000     0.000
  YS02001779              0.04    426.91      0  01:59       0.011     0.000
  YS02001882              0.01     10.02      0  01:58       0.000     0.000
  YS02001884              0.01      8.55      0  01:58       0.000     0.000
  YS02001890              0.06     88.14      0  02:01       0.013     0.000
  YS02001907              0.20   1143.32      0  02:01       0.410     0.000
  YS02001918              0.01    215.45      0  02:00       0.003     0.000
  YS02001920              0.01     16.29      0  02:00       0.000     0.000
  YS02001923              0.01    252.11      0  02:00       0.001     0.000
  YS02001926              0.01    486.47      0  02:00       0.003     0.000
  YS02001929              0.01     88.14      0  02:00       0.000     0.000
  
  
  **********************
  Storage Volume Summary
  **********************
  
  ------------------------------------------------------------------------------------------------
                         Average    Avg   Evap  Exfil     Maximum    Max    Time of Max    Maximum
                          Volume   Pcnt   Pcnt   Pcnt      Volume   Pcnt     Occurrence    Outflow
  Storage Unit           1000 m³   Full   Loss   Loss     1000 m³   Full    days hr:min        LPS
  ------------------------------------------------------------------------------------------------
  CC-storage               2.256   35.2    0.0    0.0       4.366   68.1       0  02:22    1783.53
  JK-storage               0.128   44.1    0.0    0.0       0.213   73.0       0  02:10    2300.00
  XR-storage               0.940   65.3    0.0    0.0       1.111   77.2       0  08:00     380.00
  
  
  ***********************
  Outfall Loading Summary
  ***********************
  
  -----------------------------------------------------------
                         Flow       Avg       Max       Total
                         Freq      Flow      Flow      Volume
  Outfall Node           Pcnt       LPS       LPS    10^6 ltr
  -----------------------------------------------------------
  CC-1                  30.58    683.00    683.00       3.486
  CC-2                  28.69    683.00    683.00       3.289
  JK-1                  13.60   1000.00   1000.00       1.824
  JK-2                   0.25   1000.00   1000.00       0.048
  WSC                   99.93    372.28    752.28       8.949
  -----------------------------------------------------------
  System                34.61   3738.28   3366.23      17.597
  
  
  ********************
  Link Flow Summary
  ********************
  
  -----------------------------------------------------------------------------
                                 Maximum  Time of Max   Maximum    Max/    Max/
                                  |Flow|   Occurrence   |Veloc|    Full    Full
  Link                 Type          LPS  days hr:min     m/sec    Flow   Depth
  -----------------------------------------------------------------------------
  1                    CONDUIT    752.28     0  02:58      3.08    0.26    0.35
  WS02001211WS02001212 CONDUIT    202.40     0  03:04      0.54    0.15    0.51
  WS02001212WS02001213 CONDUIT    203.98     0  03:05      1.04    0.31    0.36
  WS02001213WS02003059 CONDUIT    210.00     0  03:02      0.47    0.35    0.67
  WS02003059WS02003060 CONDUIT    214.55     0  03:35      0.67    0.14    0.58
  WS02003060WS02003069 CONDUIT    750.25     0  02:55      1.77    0.29    0.40
  WS02003066WSF200     CONDUIT    536.87     0  02:52      2.73    0.09    0.23
  WS02003067WS02003066 CONDUIT    536.84     0  02:52      1.21    0.17    0.42
  WS02003069WS02003072 CONDUIT    750.47     0  02:57      1.51    0.36    0.45
  WS02003072WS02003073 CONDUIT    750.47     0  02:57      1.60    1.62    0.43
  WS02004138WS02004139 CONDUIT    190.84     0  00:29      2.17    0.04    0.33
  WS02004139WS02001211 CONDUIT    193.96     0  03:04      0.54    0.25    0.47
  WS02004401WS02004402 CONDUIT    539.61     0  02:50      0.97    0.65    0.86
  WS02004402WS02004403 CONDUIT    538.59     0  02:50      0.97    0.77    0.88
  WS02004403WS02004404 CONDUIT    538.67     0  02:50      0.92    0.39    0.93
  WS02004404WS02004405 CONDUIT    538.64     0  02:50      1.08    5.28    0.96
  WS02004405WS02004406 CONDUIT    538.63     0  02:50      0.99    1.06    0.96
  WS02004406WS02004407 CONDUIT    538.21     0  02:50      1.04    0.24    0.63
  WS02004407WS02004409 CONDUIT    537.90     0  02:51      1.56    0.19    0.48
  WS02004409WS02004410 CONDUIT    537.56     0  02:51      1.05    0.70    0.67
  WS02004410WS02004411 CONDUIT    537.30     0  02:51      0.99    0.73    0.69
  WS02004411WS02004412 CONDUIT    537.21     0  02:51      0.92    0.76    0.69
  WS02004412WS02004413 CONDUIT    537.00     0  02:52      0.82    0.36    0.78
  WS02004413WS02003067 CONDUIT    536.80     0  02:52      1.11    0.23    0.59
  WS02006109WS02006110 CONDUIT    570.69     0  02:34      1.14    1.10    1.00
  WS02006110WS02006113 CONDUIT    567.92     0  02:06      1.38    0.52    0.78
  WS02006111WS02006112 CONDUIT    545.17     0  02:24      1.82    0.26    0.67
  WS02006112WS02006115 CONDUIT    555.62     0  02:28      0.87    0.33    0.87
  WS02006113WS02006111 CONDUIT    560.90     0  02:04      2.46    0.67    0.46
  WS02006115WS02006116 CONDUIT    541.12     0  02:29      1.05    0.69    0.76
  WS02006116WS02004401 CONDUIT    539.59     0  02:50      0.98    0.74    0.84
  WS02006228WS02006109 CONDUIT    567.73     0  02:34      1.13    2.48    1.00
  WS02006229WS02006228 CONDUIT    568.37     0  02:34      1.15    1.88    1.00
  WS02006230WS02006229 CONDUIT    568.13     0  02:34      1.48   12.64    1.00
  WS02006231WS02006230 CONDUIT    580.35     0  02:10      1.57    8.80    1.00
  WS02006232WS02006231 CONDUIT    573.97     0  02:21      1.50    1.20    1.00
  WS02006234WS02006232 CONDUIT    573.18     0  02:21      1.49    1.16    1.00
  WS02006235WS02006234 CONDUIT    570.15     0  02:21      1.48    6.02    1.00
  WS02006238WS02006235 CONDUIT    424.47     0  02:25      1.56    0.95    1.00
  WS02006239WS02006238 CONDUIT    424.57     0  02:25      1.11    1.36    1.00
  WS02006240WS02006239 CONDUIT    422.74     0  02:15      1.24    1.33    1.00
  WS02006242WS02006240 CONDUIT    419.45     0  02:20      1.12    1.67    1.00
  WS02006243WS02006242 CONDUIT    419.74     0  02:56      1.39    0.90    1.00
  WS02006245WS02006243 CONDUIT    419.22     0  02:25      1.45    1.24    1.00
  WS02006247WS02006245 CONDUIT    419.83     0  02:25      1.44    3.33    1.00
  WS02006248WS02006247 CONDUIT    419.99     0  02:25      1.45    0.91    1.00
  WS02006249WS02006248 CONDUIT    419.78     0  02:30      1.37    2.30    1.00
  WS02006251WS02006249 CONDUIT    458.97     0  00:00      1.99    1.32    1.00
  WS02006252WS02006251 CONDUIT    412.26     0  02:02     28.91    1.51    1.00
  WS02006256WS02006235 CONDUIT    289.22     0  01:51      4.23    3.06    1.00
  WSF200WS02003060     CONDUIT    536.91     0  02:53      1.76    0.12    0.32
  YS02001580YS02001583 CONDUIT    125.56     0  01:56      0.77    0.49    1.00
  YS02001583YS02001586 CONDUIT    177.78     0  01:57      0.76    0.27    1.00
  YS02001586YS02001590 CONDUIT    318.63     0  02:02      1.27    0.56    1.00
  YS02001590YS02001593 CONDUIT    318.17     0  02:06      1.13    2.00    1.00
  YS02001593YS02001596 CONDUIT    318.08     0  02:06      1.74    0.50    1.00
  YS02001596YS02001600 CONDUIT    318.05     0  02:01      1.21    0.62    1.00
  YS02001600YS02001601 CONDUIT    318.18     0  02:06      1.13    0.55    1.00
  YS02001601YS02001602 CONDUIT    531.25     0  01:56      1.88    1.92    1.00
  YS02001602YS02001605 CONDUIT    530.88     0  01:56      1.88   11.23    1.00
  YS02001605YS02001607 CONDUIT    530.39     0  01:56      1.88    2.91    1.00
  YS02001607YS02001610 CONDUIT    541.14     0  01:56      0.69    0.51    1.00
  YS02001610YS02001613 CONDUIT    546.98     0  01:56      0.70    0.63    1.00
  YS02001613YS02001616 CONDUIT    552.92     0  01:56      0.71    0.47    1.00
  YS02001616YS02001619 CONDUIT    514.69     0  01:56      0.66    0.89    1.00
  YS02001619YS02001622 CONDUIT    939.54     0  01:58      1.21    1.38    1.00
  YS02001622YS02001625 CONDUIT    945.42     0  01:56      1.20    0.50    1.00
  YS02001625YS02001629 CONDUIT    945.34     0  01:56      1.21    0.45    1.00
  YS02001629YS02163301 CONDUIT    939.47     0  01:58      1.20    1.16    1.00
  YS02001633YS02163601 CONDUIT   1412.45     0  01:58      1.80    1.48    1.00
  YS02001641YS02001644 CONDUIT   1409.15     0  01:58      1.79    4.56    1.00
  YS02001644YS02001647 CONDUIT   1825.65     0  01:58      2.36    1.07    1.00
  YS02001647YS02001649 CONDUIT   1827.13     0  01:59      2.37    0.96    1.00
  YS02001649YS02001757 CONDUIT   2024.26     0  01:59      2.58    1.23    1.00
  YS02001652YS02001649 CONDUIT    802.41     0  02:02      1.02    0.40    1.00
  YS02001655YS02001652 CONDUIT    800.91     0  02:02      1.35    0.39    1.00
  YS02001658YS02001655 CONDUIT    799.67     0  02:02      1.95    0.34    1.00
  YS02001661YS02001658 CONDUIT    798.48     0  02:02      2.35    0.31    1.00
  YS02001664YS02001661 CONDUIT    743.05     0  02:02      2.38    0.23    0.83
  YS02001745YS02001748 CONDUIT    560.69     0  02:01      2.20    0.22    0.99
  YS02001748YS02001751 CONDUIT    530.66     0  02:01      1.72    0.27    1.00
  YS02001751YS02001754 CONDUIT    533.14     0  02:01      1.48    0.26    1.00
  YS02001754YS02001757 CONDUIT    534.06     0  02:01      0.68    0.22    1.00
  YS02001757CaochengTiaoxuchi CONDUIT   3247.23     0  02:01      4.13    1.41    1.00
  YS02001759YS02001757 CONDUIT   1255.57     0  02:03      1.60    0.89    1.00
  YS02001762YS02001759 CONDUIT    736.30     0  02:03      0.94    0.85    1.00
  YS02001765YS02001762 CONDUIT    735.95     0  02:03      0.94    0.69    1.00
  YS02001767YS02001765 CONDUIT    734.48     0  02:03      0.94    0.92    1.00
  YS02001770YS02001767 CONDUIT    733.56     0  02:03      0.93    2.91    1.00
  YS02001774YS02001770 CONDUIT    489.80     0  01:59      0.62    0.31    1.00
  YS02001779YS02001774 CONDUIT    498.53     0  01:59      0.64    0.25    1.00
  YS02001783YS02001784 CONDUIT   1157.58     0  02:00      2.30    1.60    1.00
  YS02001784YS02001785 CONDUIT   1158.12     0  02:00      2.30    2.70    1.00
  YS02001786YS02001788 CONDUIT   1159.15     0  02:01      2.47    2.23    0.89
  YS02001788YS02001790 CONDUIT   1174.58     0  02:00      2.72    0.87    0.84
  YS02001790YS02001791 CONDUIT   1285.06     0  02:04      3.43    1.40    0.70
  YS02001791YS02001793 CONDUIT   1245.13     0  02:01      6.49    0.53    0.45
  YS02001793JiankangQianchi CONDUIT   1221.81     0  02:01      2.38    0.10    0.65
  YS02001882YS02001884 CONDUIT     41.32     0  01:58      0.12    0.05    1.00
  YS02001884YS02001887 CONDUIT     82.24     0  01:58      0.10    0.11    1.00
  YS02001887YS02001890 CONDUIT    585.34     0  02:01      0.75    1.00    1.00
  YS02001890YS02001895 CONDUIT    515.41     0  02:03      0.66    0.24    1.00
  YS02001895YS02001898 CONDUIT    515.29     0  02:03      0.66    0.89    1.00
  YS02001898YS02001901 CONDUIT    514.39     0  02:03      0.65    0.33    1.00
  YS02001901YS02001904 CONDUIT    515.08     0  02:03      0.66    0.80    1.00
  YS02001904YS02001907 CONDUIT    515.60     0  02:03      0.66    0.18    1.00
  YS02001907YS02006553 CONDUIT    792.07     0  02:13      0.88    0.93    1.00
  YS02001910YS02001907 CONDUIT   1054.14     0  02:01      1.34    0.59    1.00
  YS02001915YS02001910 CONDUIT   1054.31     0  02:01      1.34    0.52    1.00
  YS02001918YS02001915 CONDUIT    464.76     0  02:00      0.59    0.26    1.00
  YS02001920YS02001918 CONDUIT    457.72     0  02:00      0.65    0.44    1.00
  YS02001923YS02001920 CONDUIT    458.77     0  02:00      0.72    0.21    1.00
  YS02001926YS02001923 CONDUIT    500.71     0  01:59      0.99    0.72    1.00
  YS02001929YS02001926 CONDUIT    407.07     0  02:01      1.20    0.19    1.00
  YS02006553YS02006556 CONDUIT    792.42     0  02:13      1.01    0.68    1.00
  YS02006556YS02006558 CONDUIT    794.36     0  02:13      1.01    0.63    1.00
  YS02006558YS02006561 CONDUIT   1157.13     0  02:00      4.09    2.56    1.00
  YS02006561YS02001783 CONDUIT   1156.77     0  02:01      2.30    0.60    1.00
  YS02163301YS02001633 CONDUIT    938.78     0  01:58      1.20    0.88    1.00
  YS02163601YS02164001 CONDUIT   1413.13     0  01:58      1.80    1.25    1.00
  YS02164001YS02001641 CONDUIT   1410.62     0  01:58      1.80    1.93    1.00
  CC-R1                PUMP       683.00     0  00:00              1.00
  CC-R2                PUMP       683.00     0  00:00              1.00
  CC-S1                PUMP       200.00     0  00:00              1.00
  CC-S2                PUMP       200.00     0  00:00              1.00
  JK-R1                PUMP      1000.00     0  00:00              1.00
  JK-R2                PUMP      1000.00     0  00:00              1.00
  JK-S                 PUMP       300.00     0  00:00              1.00
  XR-1                 PUMP        95.00     0  00:00              1.00
  XR-2                 PUMP        95.00     0  00:00              1.00
  XR-3                 PUMP        95.00     0  00:00              1.00
  XR-4                 PUMP        95.00     0  00:00              1.00
  
  
  ***************************
  Flow Classification Summary
  ***************************
  
  -------------------------------------------------------------------------------------
                      Adjusted    ---------- Fraction of Time in Flow Class ---------- 
                       /Actual         Up    Down  Sub   Sup   Up    Down  Norm  Inlet 
  Conduit               Length    Dry  Dry   Dry   Crit  Crit  Crit  Crit  Ltd   Ctrl  
  -------------------------------------------------------------------------------------
  1                       1.00   0.00  0.00  0.00  0.00  1.00  0.00  0.00  0.20  0.00
  WS02001211WS02001212    1.00   0.00  0.02  0.00  0.98  0.00  0.00  0.00  0.00  0.00
  WS02001212WS02001213    1.00   0.02  0.00  0.00  0.19  0.00  0.79  0.00  0.00  0.00
  WS02001213WS02003059    1.00   0.00  0.01  0.00  0.99  0.00  0.00  0.00  0.00  0.00
  WS02003059WS02003060    1.00   0.00  0.00  0.00  1.00  0.00  0.00  0.00  0.03  0.00
  WS02003060WS02003069    1.00   0.00  0.00  0.00  0.98  0.02  0.00  0.00  0.69  0.00
  WS02003066WSF200        1.00   0.13  0.00  0.00  0.00  0.87  0.00  0.00  0.77  0.00
  WS02003067WS02003066    1.00   0.10  0.02  0.00  0.88  0.00  0.00  0.00  0.00  0.00
  WS02003069WS02003072    1.00   0.00  0.00  0.00  1.00  0.00  0.00  0.00  0.79  0.00
  WS02003072WS02003073    1.00   0.00  0.00  0.00  0.00  0.00  0.00  1.00  0.00  0.00
  WS02004138WS02004139    1.00   0.00  0.00  0.00  0.97  0.01  0.00  0.02  0.98  0.00
  WS02004139WS02001211    1.00   0.00  0.00  0.00  0.99  0.00  0.00  0.00  0.00  0.00
  WS02004401WS02004402    1.00   0.02  0.00  0.00  0.98  0.00  0.00  0.00  0.00  0.00
  WS02004402WS02004403    1.00   0.02  0.00  0.00  0.97  0.00  0.00  0.00  0.00  0.00
  WS02004403WS02004404    1.00   0.00  0.03  0.00  0.97  0.00  0.00  0.00  0.00  0.00
  WS02004404WS02004405    1.00   0.00  0.00  0.00  1.00  0.00  0.00  0.00  0.01  0.00
  WS02004405WS02004406    1.00   0.00  0.00  0.00  1.00  0.00  0.00  0.00  0.00  0.00
  WS02004406WS02004407    1.00   0.00  0.05  0.00  0.95  0.00  0.00  0.00  0.00  0.00
  WS02004407WS02004409    1.00   0.05  0.00  0.00  0.94  0.01  0.00  0.00  0.94  0.00
  WS02004409WS02004410    1.00   0.05  0.00  0.00  0.95  0.00  0.00  0.00  0.03  0.00
  WS02004410WS02004411    1.00   0.05  0.00  0.00  0.95  0.00  0.00  0.00  0.01  0.00
  WS02004411WS02004412    1.00   0.05  0.00  0.00  0.95  0.00  0.00  0.00  0.00  0.00
  WS02004412WS02004413    1.00   0.05  0.00  0.00  0.94  0.00  0.00  0.00  0.01  0.00
  WS02004413WS02003067    1.00   0.06  0.04  0.00  0.00  0.00  0.90  0.00  0.00  0.00
  WS02006109WS02006110    1.00   0.00  0.01  0.00  0.98  0.00  0.01  0.00  0.00  0.00
  WS02006110WS02006113    1.00   0.01  0.01  0.00  0.98  0.00  0.00  0.00  0.00  0.00
  WS02006111WS02006112    1.00   0.02  0.00  0.00  0.98  0.00  0.00  0.00  0.98  0.00
  WS02006112WS02006115    1.00   0.02  0.00  0.00  0.97  0.00  0.00  0.00  0.00  0.00
  WS02006113WS02006111    1.00   0.02  0.00  0.00  0.00  0.98  0.00  0.00  0.10  0.00
  WS02006115WS02006116    1.00   0.02  0.00  0.00  0.97  0.00  0.00  0.01  0.00  0.00
  WS02006116WS02004401    1.00   0.02  0.00  0.00  0.98  0.00  0.00  0.00  0.00  0.00
  WS02006228WS02006109    1.00   0.00  0.00  0.00  1.00  0.00  0.00  0.00  0.00  0.00
  WS02006229WS02006228    1.00   0.00  0.00  0.00  0.99  0.00  0.00  0.01  0.00  0.00
  WS02006230WS02006229    1.00   0.00  0.00  0.00  0.99  0.00  0.00  0.01  0.02  0.00
  WS02006231WS02006230    1.00   0.00  0.00  0.00  0.18  0.00  0.82  0.00  0.00  0.00
  WS02006232WS02006231    1.00   0.00  0.00  0.00  0.99  0.00  0.01  0.00  0.00  0.00
  WS02006234WS02006232    1.00   0.00  0.00  0.00  1.00  0.00  0.00  0.00  0.37  0.00
  WS02006235WS02006234    1.00   0.00  0.00  0.00  0.57  0.00  0.43  0.00  0.00  0.00
  WS02006238WS02006235    1.00   0.00  0.00  0.00  1.00  0.00  0.00  0.00  0.00  0.00
  WS02006239WS02006238    1.00   0.00  0.00  0.00  1.00  0.00  0.00  0.00  0.51  0.00
  WS02006240WS02006239    1.00   0.00  0.00  0.00  0.42  0.00  0.00  0.57  0.02  0.00
  WS02006242WS02006240    1.00   0.00  0.00  0.00  1.00  0.00  0.00  0.00  0.00  0.00
  WS02006243WS02006242    1.00   0.00  0.00  0.00  0.99  0.00  0.00  0.01  0.74  0.00
  WS02006245WS02006243    1.00   0.00  0.00  0.00  0.49  0.00  0.00  0.51  0.01  0.00
  WS02006247WS02006245    1.00   0.00  0.00  0.00  0.98  0.00  0.00  0.01  0.00  0.00
  WS02006248WS02006247    1.00   0.00  0.00  0.00  0.99  0.00  0.00  0.01  0.26  0.00
  WS02006249WS02006248    1.00   0.00  0.00  0.00  0.30  0.00  0.70  0.00  0.00  0.00
  WS02006251WS02006249    1.00   0.00  0.00  0.00  0.99  0.01  0.00  0.00  0.74  0.00
  WS02006252WS02006251    1.00   0.00  0.65  0.00  0.10  0.00  0.25  0.00  0.00  0.00
  WS02006256WS02006235    1.00   0.00  0.00  0.00  0.99  0.01  0.00  0.00  0.00  0.00
  WSF200WS02003060        1.00   0.00  0.13  0.00  0.70  0.17  0.00  0.00  0.69  0.00
  YS02001580YS02001583    1.00   0.24  0.59  0.00  0.17  0.00  0.00  0.00  0.69  0.00
  YS02001583YS02001586    1.00   0.50  0.28  0.00  0.22  0.00  0.00  0.00  0.69  0.00
  YS02001586YS02001590    1.00   0.13  0.00  0.00  0.38  0.04  0.00  0.46  0.34  0.00
  YS02001590YS02001593    1.00   0.13  0.01  0.00  0.09  0.00  0.78  0.00  0.00  0.00
  YS02001593YS02001596    1.00   0.14  0.00  0.00  0.10  0.01  0.00  0.76  0.02  0.00
  YS02001596YS02001600    1.00   0.14  0.00  0.00  0.17  0.01  0.00  0.68  0.05  0.00
  YS02001600YS02001601    1.00   0.13  0.01  0.00  0.86  0.00  0.00  0.00  0.63  0.00
  YS02001601YS02001602    1.00   0.13  0.01  0.00  0.86  0.00  0.00  0.00  0.00  0.00
  YS02001602YS02001605    1.00   0.14  0.00  0.00  0.86  0.00  0.00  0.00  0.00  0.00
  YS02001605YS02001607    1.00   0.14  0.00  0.00  0.86  0.00  0.00  0.00  0.00  0.00
  YS02001607YS02001610    1.00   0.13  0.01  0.00  0.86  0.00  0.00  0.00  0.02  0.00
  YS02001610YS02001613    1.00   0.13  0.00  0.00  0.87  0.00  0.00  0.00  0.01  0.00
  YS02001613YS02001616    1.00   0.13  0.00  0.00  0.87  0.00  0.00  0.00  0.01  0.00
  YS02001616YS02001619    1.00   0.13  0.00  0.00  0.87  0.00  0.00  0.00  0.00  0.00
  YS02001619YS02001622    1.00   0.13  0.00  0.00  0.87  0.00  0.00  0.00  0.35  0.00
  YS02001622YS02001625    1.00   0.13  0.00  0.00  0.87  0.00  0.00  0.00  0.05  0.00
  YS02001625YS02001629    1.00   0.13  0.05  0.00  0.13  0.00  0.69  0.00  0.00  0.00
  YS02001629YS02163301    1.00   0.16  0.01  0.00  0.83  0.00  0.00  0.00  0.00  0.00
  YS02001633YS02163601    1.00   0.00  0.01  0.00  0.99  0.00  0.00  0.00  0.15  0.00
  YS02001641YS02001644    1.00   0.00  0.01  0.00  0.99  0.00  0.00  0.00  0.00  0.00
  YS02001644YS02001647    1.00   0.00  0.18  0.00  0.82  0.00  0.00  0.00  0.00  0.00
  YS02001647YS02001649    1.00   0.00  0.18  0.00  0.55  0.27  0.00  0.00  0.59  0.00
  YS02001649YS02001757    1.00   0.00  0.00  0.00  0.70  0.30  0.00  0.00  0.56  0.00
  YS02001652YS02001649    1.00   0.00  0.00  0.00  0.96  0.04  0.00  0.00  0.78  0.00
  YS02001655YS02001652    1.00   0.00  0.00  0.00  0.14  0.02  0.00  0.84  0.05  0.00
  YS02001658YS02001655    1.00   0.00  0.14  0.00  0.65  0.21  0.00  0.00  0.72  0.00
  YS02001661YS02001658    1.00   0.14  0.00  0.00  0.51  0.34  0.00  0.00  0.73  0.00
  YS02001664YS02001661    1.00   0.13  0.00  0.00  0.78  0.09  0.00  0.00  0.86  0.00
  YS02001745YS02001748    1.00   0.00  0.00  0.00  0.07  0.01  0.00  0.93  0.04  0.00
  YS02001748YS02001751    1.00   0.00  0.00  0.00  0.82  0.18  0.00  0.00  0.79  0.00
  YS02001751YS02001754    1.00   0.00  0.00  0.00  0.12  0.00  0.00  0.88  0.02  0.00
  YS02001754YS02001757    1.00   0.00  0.00  0.00  1.00  0.00  0.00  0.00  0.87  0.00
  YS02001757CaochengTiaoxuchi    1.00   0.00  0.00  0.00  1.00  0.00  0.00  0.00  0.86  0.00
  YS02001759YS02001757    1.00   0.00  0.00  0.00  1.00  0.00  0.00  0.00  0.63  0.00
  YS02001762YS02001759    1.00   0.00  0.00  0.00  1.00  0.00  0.00  0.00  0.04  0.00
  YS02001765YS02001762    1.00   0.00  0.00  0.00  1.00  0.00  0.00  0.00  0.77  0.00
  YS02001767YS02001765    1.00   0.00  0.00  0.00  1.00  0.00  0.00  0.00  0.00  0.00
  YS02001770YS02001767    1.00   0.00  0.00  0.00  1.00  0.00  0.00  0.00  0.00  0.00
  YS02001774YS02001770    1.00   0.00  0.13  0.00  0.60  0.00  0.27  0.00  0.03  0.00
  YS02001779YS02001774    1.00   0.00  0.00  0.00  1.00  0.00  0.00  0.00  0.81  0.00
  YS02001783YS02001784    1.00   0.00  0.19  0.00  0.81  0.00  0.00  0.00  0.58  0.00
  YS02001784YS02001785    1.00   0.00  0.00  0.00  1.00  0.00  0.00  0.00  0.17  0.00
  YS02001786YS02001788    1.00   0.00  0.00  0.00  0.81  0.19  0.00  0.00  0.00  0.00
  YS02001788YS02001790    1.00   0.00  0.00  0.00  0.21  0.79  0.00  0.00  0.84  0.00
  YS02001790YS02001791    1.00   0.00  0.00  0.00  0.01  0.99  0.00  0.00  0.15  0.00
  YS02001791YS02001793    1.00   0.00  0.00  0.00  0.00  1.00  0.00  0.00  0.01  0.00
  YS02001793JiankangQianchi    1.00   0.00  0.00  0.00  1.00  0.00  0.00  0.00  0.96  0.00
  YS02001882YS02001884    1.00   0.15  0.01  0.00  0.83  0.00  0.00  0.00  0.00  0.00
  YS02001884YS02001887    1.00   0.06  0.05  0.00  0.89  0.00  0.00  0.00  0.00  0.00
  YS02001887YS02001890    1.00   0.00  0.00  0.00  0.97  0.00  0.03  0.00  0.00  0.00
  YS02001890YS02001895    1.00   0.00  0.17  0.00  0.83  0.00  0.00  0.00  0.00  0.00
  YS02001895YS02001898    1.00   0.17  0.00  0.00  0.81  0.00  0.02  0.00  0.00  0.00
  YS02001898YS02001901    1.00   0.17  0.00  0.00  0.83  0.00  0.00  0.00  0.01  0.00
  YS02001901YS02001904    1.00   0.17  0.00  0.00  0.83  0.00  0.00  0.00  0.00  0.00
  YS02001904YS02001907    1.00   0.00  0.17  0.00  0.83  0.00  0.00  0.00  0.00  0.00
  YS02001907YS02006553    1.00   0.00  0.02  0.00  0.98  0.00  0.00  0.00  0.00  0.00
  YS02001910YS02001907    1.00   0.00  0.00  0.00  0.97  0.00  0.00  0.03  0.12  0.00
  YS02001915YS02001910    1.00   0.00  0.00  0.00  0.96  0.04  0.00  0.00  0.16  0.00
  YS02001918YS02001915    1.00   0.00  0.01  0.00  0.98  0.02  0.00  0.00  0.78  0.00
  YS02001920YS02001918    1.00   0.00  0.01  0.00  0.99  0.00  0.00  0.00  0.00  0.00
  YS02001923YS02001920    1.00   0.00  0.00  0.00  1.00  0.00  0.00  0.00  0.95  0.00
  YS02001926YS02001923    1.00   0.00  0.07  0.00  0.04  0.00  0.89  0.00  0.00  0.00
  YS02001929YS02001926    1.00   0.00  0.13  0.00  0.87  0.00  0.00  0.00  0.84  0.00
  YS02006553YS02006556    1.00   0.01  0.00  0.00  0.99  0.00  0.00  0.00  0.03  0.00
  YS02006556YS02006558    1.00   0.00  0.00  0.00  1.00  0.00  0.00  0.00  0.00  0.00
  YS02006558YS02006561    1.00   0.19  0.00  0.00  0.04  0.78  0.00  0.00  0.18  0.00
  YS02006561YS02001783    1.00   0.19  0.00  0.00  0.06  0.75  0.00  0.00  0.71  0.00
  YS02163301YS02001633    1.00   0.00  0.16  0.00  0.84  0.00  0.00  0.00  0.00  0.00
  YS02163601YS02164001    1.00   0.00  0.08  0.00  0.92  0.00  0.00  0.00  0.00  0.00
  YS02164001YS02001641    1.00   0.01  0.07  0.00  0.92  0.00  0.00  0.00  0.06  0.00
  
  
  *************************
  Conduit Surcharge Summary
  *************************
  
  ----------------------------------------------------------------------------
                                                           Hours        Hours 
                         --------- Hours Full --------   Above Full   Capacity
  Conduit                Both Ends  Upstream  Dnstream   Normal Flow   Limited
  ----------------------------------------------------------------------------
  WS02003072WS02003073        0.01      0.01      0.01      1.48         0.01
  WS02004404WS02004405        0.01      0.01      0.01      1.91         0.01
  WS02004405WS02004406        0.01      0.01      0.01      0.62         0.01
  WS02006109WS02006110        0.60      0.60      1.38      0.71         0.01
  WS02006110WS02006113        0.01      0.01      1.37      0.01         0.01
  WS02006111WS02006112        0.01      0.01      1.44      0.01         0.01
  WS02006112WS02006115        0.01      0.01      0.69      0.01         0.01
  WS02006228WS02006109        1.34      1.38      1.34      1.49         1.34
  WS02006229WS02006228        1.33      1.34      1.33      1.45         1.32
  WS02006230WS02006229        1.40      1.43      1.40      2.57         1.40
  WS02006231WS02006230        0.61      0.61      0.76      2.18         0.01
  WS02006232WS02006231        0.72      0.72      1.38      0.77         0.01
  WS02006234WS02006232        1.28      1.28      1.38      0.76         0.75
  WS02006235WS02006234        0.88      0.89      1.30      2.00         0.01
  WS02006238WS02006235        1.32      1.32      1.37      0.01         0.01
  WS02006239WS02006238        1.32      1.34      1.34      1.34         1.20
  WS02006240WS02006239        1.30      1.31      1.30      1.35         1.14
  WS02006242WS02006240        1.31      1.31      1.34      1.41         0.01
  WS02006243WS02006242        1.31      1.31      1.34      0.01         0.04
  WS02006245WS02006243        1.30      1.30      1.30      0.70         0.68
  WS02006247WS02006245        1.30      1.31      1.30      1.57         1.29
  WS02006248WS02006247        1.30      1.30      1.30      0.01         0.04
  WS02006249WS02006248        1.30      1.30      1.30      1.55         0.01
  WS02006251WS02006249        1.29      1.30      1.30      1.42         1.25
  WS02006252WS02006251        1.49      1.49      1.49      1.49         0.01
  WS02006256WS02006235        2.04      2.08      3.89      1.19         0.01
  YS02001580YS02001583        0.41      0.41      0.46      0.01         0.01
  YS02001583YS02001586        0.42      0.42      0.53      0.01         0.01
  YS02001586YS02001590        0.54      0.54      0.59      0.01         0.01
  YS02001590YS02001593        0.60      0.60      0.61      0.63         0.01
  YS02001593YS02001596        0.61      0.61      0.69      0.01         0.01
  YS02001596YS02001600        0.73      0.73      0.82      0.01         0.01
  YS02001600YS02001601        0.87      0.87      1.17      0.01         0.01
  YS02001601YS02001602        1.04      1.04      1.22      0.82         0.01
  YS02001602YS02001605        0.99      0.99      1.04      1.98         0.01
  YS02001605YS02001607        0.94      0.99      0.94      1.12         0.94
  YS02001607YS02001610        0.57      0.57      0.59      0.01         0.01
  YS02001610YS02001613        0.56      0.56      0.59      0.01         0.01
  YS02001613YS02001616        0.53      0.53      0.56      0.01         0.01
  YS02001616YS02001619        0.51      0.51      0.53      0.01         0.01
  YS02001619YS02001622        0.51      0.51      0.51      0.61         0.49
  YS02001622YS02001625        0.51      0.51      0.67      0.01         0.01
  YS02001625YS02001629        0.47      0.47      0.67      0.01         0.01
  YS02001629YS02163301        0.67      0.67      0.67      0.12         0.13
  YS02001633YS02163601        0.69      0.69      0.71      0.30         0.31
  YS02001641YS02001644        0.60      0.64      0.60      1.28         0.60
  YS02001644YS02001647        0.43      0.43      0.60      0.03         0.01
  YS02001647YS02001649        0.43      0.43      0.53      0.01         0.01
  YS02001649YS02001757        0.53      0.53      0.59      0.06         0.06
  YS02001652YS02001649        0.38      0.38      0.53      0.01         0.01
  YS02001655YS02001652        0.24      0.24      0.36      0.01         0.01
  YS02001658YS02001655        0.10      0.10      0.24      0.01         0.01
  YS02001661YS02001658        0.01      0.01      0.10      0.01         0.01
  YS02001664YS02001661        0.01      0.01      0.02      0.01         0.01
  YS02001745YS02001748        0.01      0.01      0.02      0.01         0.01
  YS02001748YS02001751        0.08      0.08      0.15      0.01         0.01
  YS02001751YS02001754        0.15      0.15      0.28      0.01         0.01
  YS02001754YS02001757        0.32      0.32      0.59      0.01         0.01
  YS02001757CaochengTiaoxuchi        0.59      0.59      1.08      0.24         0.23
  YS02001759YS02001757        0.49      0.49      0.59      0.01         0.01
  YS02001762YS02001759        0.47      0.47      0.49      0.01         0.01
  YS02001765YS02001762        0.43      0.43      0.47      0.01         0.01
  YS02001767YS02001765        0.40      0.40      0.43      0.01         0.01
  YS02001770YS02001767        0.40      0.40      0.40      0.38         0.28
  YS02001774YS02001770        0.37      0.37      0.45      0.01         0.01
  YS02001779YS02001774        0.28      0.28      0.45      0.01         0.01
  YS02001783YS02001784        0.34      0.37      0.34      0.49         0.34
  YS02001784YS02001785        0.25      0.34      0.25      0.67         0.25
  YS02001786YS02001788        0.01      0.25      0.01      0.57         0.01
  YS02001790YS02001791        0.01      0.01      0.01      0.33         0.01
  YS02001793JiankangQianchi        0.01      0.01      7.66      0.01         0.01
  YS02001882YS02001884        0.32      0.32      0.33      0.01         0.01
  YS02001884YS02001887        0.35      0.35      0.36      0.01         0.01
  YS02001887YS02001890        0.37      0.37      0.38      0.01         0.01
  YS02001890YS02001895        0.31      0.31      0.39      0.01         0.01
  YS02001895YS02001898        0.30      0.30      0.31      0.01         0.01
  YS02001898YS02001901        0.31      0.31      0.35      0.01         0.01
  YS02001901YS02001904        0.34      0.34      0.35      0.01         0.01
  YS02001904YS02001907        0.34      0.34      0.56      0.01         0.01
  YS02001907YS02006553        0.68      0.68      0.73      0.01         0.01
  YS02001910YS02001907        0.39      0.39      0.54      0.01         0.01
  YS02001915YS02001910        0.32      0.32      0.39      0.01         0.01
  YS02001918YS02001915        0.24      0.24      0.32      0.01         0.01
  YS02001920YS02001918        0.24      0.24      0.25      0.01         0.01
  YS02001923YS02001920        0.20      0.20      0.25      0.01         0.01
  YS02001926YS02001923        0.01      0.01      0.01      0.01         0.01
  YS02001929YS02001926        0.01      0.01      0.01      0.01         0.01
  YS02006553YS02006556        0.47      0.47      0.55      0.01         0.01
  YS02006556YS02006558        0.51      0.51      0.57      0.01         0.01
  YS02006558YS02006561        0.28      0.46      0.28      0.63         0.28
  YS02006561YS02001783        0.22      0.22      0.37      0.01         0.01
  YS02163301YS02001633        0.67      0.67      0.70      0.01         0.01
  YS02163601YS02164001        0.64      0.64      0.71      0.05         0.01
  YS02164001YS02001641        0.64      0.64      0.64      0.60         0.52
  
  
  ***************
  Pumping Summary
  ***************
  
  ---------------------------------------------------------------------------------------------------------
                                                  Min       Avg       Max     Total     Power    % Time Off
                        Percent   Number of      Flow      Flow      Flow    Volume     Usage    Pump Curve
  Pump                 Utilized   Start-Ups       LPS       LPS       LPS  10^6 ltr     Kw-hr    Low   High
  ---------------------------------------------------------------------------------------------------------
  CC-R1                   17.71          14      0.00    683.00    683.00     3.484     63.62    0.0   28.7
  CC-R2                   16.71          14      0.00    683.00    683.00     3.288     59.99    0.0   30.4
  CC-S1                   20.23          14      0.00    200.00    200.00     1.165      6.90    0.0    0.0
  CC-S2                   18.60          14      0.00    200.00    200.00     1.071      6.33    0.0    0.0
  JK-R1                    6.33          11      0.00   1000.00   1000.00     1.823     21.73    0.0    0.0
  JK-R2                    0.16           1      0.00   1000.00   1000.00     0.047      0.36    0.0    0.0
  JK-S                    14.87          14      0.00    300.00    300.00     1.285     19.16    0.0    0.0
  XR-1                    97.91           2      0.00     95.00     95.00     2.679      9.60    0.0    0.0
  XR-2                    93.94           2      0.00     95.00     95.00     2.570      8.76    0.0    0.0
  XR-3                     0.00           1      0.00     95.00     95.00     0.000      0.00    0.0    0.0
  XR-4                     0.00           1      0.00     95.00     95.00     0.000      0.00    0.0    0.0
  

  Analysis begun on:  Wed Nov  5 16:31:02 2025
  Analysis ended on:  Wed Nov  5 16:31:04 2025
  Total elapsed time: 00:00:02