
  EPA STORM WATER MANAGEMENT MODEL - VERSION 5.2 (Build 5.2.4)
  PYSWMM TOOLKIT API - VERSION v1.0 (2023-11-27)
  ------------------------------------------------------------

  WARNING 04: minimum elevation drop used for Conduit WS02004404WS02004405
  WARNING 03: negative offset ignored for Link YS02001904YS02001907
  
  ****************
  Analysis Options
  ****************
  Flow Units ............... LPS
  Process Models:
    Rainfall/Runoff ........ YES
    RDII ................... NO
    Snowmelt ............... NO
    Groundwater ............ NO
    Flow Routing ........... YES
    Ponding Allowed ........ NO
    Water Quality .......... NO
  Infiltration Method ...... HORTON
  Flow Routing Method ...... DYNWAVE
  Surcharge Method ......... EXTRAN
  Starting Date ............ 08/28/2015 08:00:00
  Ending Date .............. 08/28/2015 16:00:00
  Antecedent Dry Days ...... 8.0
  Report Time Step ......... 00:01:00
  Wet Time Step ............ 00:01:00
  Dry Time Step ............ 00:01:00
  Routing Time Step ........ 30.00 sec
  Variable Time Step ....... YES
  Maximum Trials ........... 8
  Number of Threads ........ 4
  Head Tolerance ........... 0.001500 m
  
  
  **************************        Volume         Depth
  Runoff Quantity Continuity     hectare-m            mm
  **************************     ---------       -------
  Initial LID Storage ......         0.049         1.488
  Total Precipitation ......         1.777        53.568
  Evaporation Loss .........         0.000         0.000
  Infiltration Loss ........         0.076         2.290
  Surface Runoff ...........         1.301        39.220
  Final Storage ............         0.450        13.577
  Continuity Error (%) .....        -0.056
  
  
  **************************        Volume        Volume
  Flow Routing Continuity        hectare-m      10^6 ltr
  **************************     ---------     ---------
  Dry Weather Inflow .......         0.602         6.020
  Wet Weather Inflow .......         1.301        13.009
  Groundwater Inflow .......         0.000         0.000
  RDII Inflow ..............         0.000         0.000
  External Inflow ..........         0.105         1.045
  External Outflow .........         1.703        17.029
  Flooding Loss ............         0.279         2.789
  Evaporation Loss .........         0.000         0.000
  Exfiltration Loss ........         0.000         0.000
  Initial Stored Volume ....         0.303         3.031
  Final Stored Volume ......         0.334         3.340
  Continuity Error (%) .....        -0.226
  
  
  *************************
  Highest Continuity Errors
  *************************
  Node YS02001884 (4.81%)
  Node YS02001583 (-4.06%)
  Node YS02001774 (1.57%)
  
  
  ***************************
  Time-Step Critical Elements
  ***************************
  Link WS02004404WS02004405 (39.76%)
  Link WS02006238WS02006235 (16.09%)
  Link WS02006252WS02006251 (13.89%)
  Link YS02001791YS02001793 (10.24%)
  Link WS02006235WS02006234 (3.97%)
  
  
  ********************************
  Highest Flow Instability Indexes
  ********************************
  Link WS02006113WS02006111 (28)
  Link WS02006111WS02006112 (17)
  Link WS02006252WS02006251 (15)
  Link YS02006558YS02006561 (14)
  Link WS02006238WS02006235 (13)
  
  
  *********************************
  Most Frequent Nonconverging Nodes
  *********************************
  Node CC-1 (13.38%)
  Node CC-2 (13.38%)
  Node JK-1 (13.38%)
  Node JK-2 (13.38%)
  Node WSC (13.38%)
  
  
  *************************
  Routing Time Step Summary
  *************************
  Minimum Time Step           :     0.01 sec
  Average Time Step           :     3.40 sec
  Maximum Time Step           :     7.04 sec
  % of Time in Steady State   :     0.00
  Average Iterations per Step :     3.11
  % of Steps Not Converging   :    13.38
  Time Step Frequencies       :
     30.000 - 13.228 sec      :     0.00 %
     13.228 -  5.833 sec      :    27.98 %
      5.833 -  2.572 sec      :    24.87 %
      2.572 -  1.134 sec      :    26.48 %
      1.134 -  0.500 sec      :    20.66 %
  
  
  ***************************
  Subcatchment Runoff Summary
  ***************************
  
  ------------------------------------------------------------------------------------------------------------------------------
                            Total      Total      Total      Total     Imperv       Perv      Total       Total     Peak  Runoff
                           Precip      Runon       Evap      Infil     Runoff     Runoff     Runoff      Runoff   Runoff   Coeff
  Subcatchment                 mm         mm         mm         mm         mm         mm         mm    10^6 ltr      LPS
  ------------------------------------------------------------------------------------------------------------------------------
  sub60                     53.57       0.00       0.00       1.34      35.45       3.62      39.07        0.51   369.40   0.729
  sub61                     53.57       0.00       0.00       2.07      35.42       5.37      40.80        0.75   540.06   0.762
  sub62                     53.57       0.00       0.00       0.91      37.76       2.46      40.22        1.10   741.79   0.751
  sub63                     53.57       0.00       0.00       3.83      30.34       8.89      39.23        0.89   619.02   0.732
  sub64                     53.57       0.00       0.00       1.83      34.54       4.43      38.97        0.94   607.53   0.728
  sub65                     53.57       0.00       0.00       1.68      37.28       4.04      41.32        1.14   709.35   0.771
  sub66                     53.57       0.00       0.00       4.51      29.33       7.81      37.13        1.73   935.82   0.693
  sub67                     53.57       0.00       0.00       0.90      38.72       2.55      41.27        0.77   568.05   0.770
  sub68                     53.57       0.00       0.00       1.59      34.19       4.12      38.32        1.05   738.58   0.715
  sub69                     53.57       0.00       0.00       1.46      36.01       4.91      40.91        1.51   916.86   0.764
  sub70                     53.57       0.00       0.00       4.97      28.84       9.94      38.78        1.12   540.83   0.724
  sub71                     53.57       0.00       0.00       0.85      34.30       2.22      36.52        0.95   612.88   0.682
  sub72                     53.57       0.00       0.00       0.81      37.04       2.06      39.10        0.54   316.83   0.730
  

  ***********************
  LID Performance Summary
  ***********************

  --------------------------------------------------------------------------------------------------------------------
                                         Total      Evap     Infil   Surface    Drain    Initial     Final  Continuity
                                        Inflow      Loss      Loss   Outflow   Outflow   Storage   Storage       Error
  Subcatchment      LID Control             mm        mm        mm        mm        mm        mm        mm           %
  --------------------------------------------------------------------------------------------------------------------
  sub60             GreenRoof            53.57      0.00      0.00      0.00      0.00      7.05     60.72       -0.17
  sub61             GreenRoof            53.57      0.00      0.00      0.00      0.00      7.05     60.72       -0.17
  sub62             GreenRoof            53.57      0.00      0.00      0.00      0.00      7.05     60.72       -0.17
  sub63             GreenRoof            53.57      0.00      0.00      0.00      0.00      7.05     60.72       -0.17
  sub64             GreenRoof            53.57      0.00      0.00      0.00      0.00      7.05     60.72       -0.17
  sub65             GreenRoof            53.57      0.00      0.00      0.00      0.00      7.05     60.72       -0.17
  sub66             GreenRoof            53.57      0.00      0.00      0.00      0.00      7.05     60.72       -0.17
  sub67             GreenRoof            53.57      0.00      0.00      0.00      0.00      7.05     60.72       -0.17
  sub68             GreenRoof            53.57      0.00      0.00      0.00      0.00      7.05     60.72       -0.17
  sub69             GreenRoof            53.57      0.00      0.00      0.00      0.00      7.05     60.72       -0.17
  sub70             GreenRoof            53.57      0.00      0.00      0.00      0.00      7.05     60.72       -0.17
  sub71             GreenRoof            53.57      0.00      0.00      0.00      0.00      7.05     60.72       -0.17
  sub72             GreenRoof            53.57      0.00      0.00      0.00      0.00      7.05     60.72       -0.17
  
  ******************
  Node Depth Summary
  ******************
  
  ---------------------------------------------------------------------------------
                                 Average  Maximum  Maximum  Time of Max    Reported
                                   Depth    Depth      HGL   Occurrence   Max Depth
  Node                 Type       Meters   Meters   Meters  days hr:min      Meters
  ---------------------------------------------------------------------------------
  WS02001211           JUNCTION     0.60     0.64     5.48     0  03:24        0.64
  WS02001212           JUNCTION     0.33     0.38     5.45     0  03:23        0.38
  WS02001213           JUNCTION     0.53     0.65     5.41     0  03:23        0.65
  WS02003059           JUNCTION     0.59     0.72     5.40     0  03:22        0.72
  WS02003060           JUNCTION     0.30     0.45     5.38     0  03:22        0.45
  WS02003066           JUNCTION     0.15     0.30     5.85     0  03:19        0.30
  WS02003067           JUNCTION     0.42     0.70     6.02     0  03:18        0.70
  WS02003069           JUNCTION     0.33     0.51     5.10     0  03:22        0.51
  WS02003072           JUNCTION     0.40     0.58     4.95     0  03:23        0.58
  WS02003073           JUNCTION     0.23     0.35     4.41     0  03:23        0.35
  WS02004138           JUNCTION     0.13     0.14     7.39     0  00:29        0.14
  WS02004139           JUNCTION     0.54     0.58     5.49     0  03:24        0.58
  WS02004401           JUNCTION     0.51     0.85     6.85     0  03:01        0.85
  WS02004402           JUNCTION     0.55     0.88     6.84     0  03:04        0.88
  WS02004403           JUNCTION     0.57     0.89     6.82     0  03:02        0.89
  WS02004404           JUNCTION     0.64     0.96     6.81     0  03:02        0.96
  WS02004405           JUNCTION     0.64     0.96     6.81     0  03:02        0.96
  WS02004406           JUNCTION     0.65     0.96     6.79     0  03:02        0.96
  WS02004407           JUNCTION     0.13     0.30     6.61     0  03:11        0.30
  WS02004409           JUNCTION     0.30     0.67     6.44     0  03:17        0.67
  WS02004410           JUNCTION     0.33     0.68     6.40     0  03:18        0.68
  WS02004411           JUNCTION     0.35     0.69     6.37     0  03:18        0.69
  WS02004412           JUNCTION     0.38     0.70     6.34     0  03:19        0.70
  WS02004413           JUNCTION     0.53     0.86     6.33     0  03:19        0.86
  WS02006109           JUNCTION     0.58     1.30     7.91     0  02:51        1.10
  WS02006110           JUNCTION     0.58     1.50     8.09     0  02:17        1.01
  WS02006111           JUNCTION     0.14     0.29     6.99     0  02:17        0.29
  WS02006112           JUNCTION     0.66     1.08     6.97     0  02:23        1.07
  WS02006113           JUNCTION     0.22     0.46     7.35     0  02:17        0.46
  WS02006115           JUNCTION     0.40     0.75     6.89     0  03:02        0.75
  WS02006116           JUNCTION     0.48     0.83     6.87     0  03:01        0.83
  WS02006228           JUNCTION     0.57     1.92     8.57     0  02:17        1.92
  WS02006229           JUNCTION     0.54     2.04     8.73     0  02:17        2.04
  WS02006230           JUNCTION     0.54     1.99     8.74     0  02:51        1.33
  WS02006231           JUNCTION     0.35     1.92     9.05     0  02:17        1.92
  WS02006232           JUNCTION     0.48     2.18     9.22     0  02:17        2.18
  WS02006234           JUNCTION     0.40     1.96     9.12     0  02:17        1.96
  WS02006235           JUNCTION     0.45     2.00     9.16     0  02:17        2.00
  WS02006238           JUNCTION     0.47     2.02     9.17     0  02:17        2.02
  WS02006239           JUNCTION     0.43     1.89     9.10     0  02:17        1.89
  WS02006240           JUNCTION     0.41     1.74     9.03     0  02:17        1.74
  WS02006242           JUNCTION     0.46     1.55     8.82     0  02:17        1.55
  WS02006243           JUNCTION     0.39     1.44     8.86     0  02:17        1.44
  WS02006245           JUNCTION     0.39     1.33     8.81     0  02:17        1.33
  WS02006247           JUNCTION     0.41     1.47     8.97     0  02:14        1.25
  WS02006248           JUNCTION     0.38     1.10     8.69     0  02:16        1.10
  WS02006249           JUNCTION     0.40     1.09     8.69     0  02:14        1.09
  WS02006251           JUNCTION     0.40     1.54     9.21     0  02:15        1.16
  WS02006252           JUNCTION     0.27     1.50     9.74     0  00:00        0.74
  WS02006256           JUNCTION     1.07     2.35     9.28     0  00:00        2.35
  WSF200               JUNCTION     0.13     0.31     5.54     0  02:40        0.31
  YS02001580           JUNCTION     0.09     1.05     9.59     0  02:17        0.77
  YS02001583           JUNCTION     0.11     1.03     9.53     0  02:17        0.82
  YS02001586           JUNCTION     0.21     1.13     9.30     0  02:17        1.13
  YS02001590           JUNCTION     0.31     1.40     9.26     0  02:35        1.40
  YS02001593           JUNCTION     0.24     1.34     9.20     0  02:17        1.33
  YS02001596           JUNCTION     0.34     1.68     9.10     0  02:17        1.68
  YS02001600           JUNCTION     0.43     1.87     9.00     0  02:17        1.87
  YS02001601           JUNCTION     0.63     2.06     8.90     0  02:16        2.06
  YS02001602           JUNCTION     0.54     1.87     8.77     0  02:16        1.87
  YS02001605           JUNCTION     0.49     1.78     8.68     0  02:17        1.78
  YS02001607           JUNCTION     0.47     1.66     8.50     0  02:17        1.66
  YS02001610           JUNCTION     0.51     1.68     8.48     0  02:17        1.68
  YS02001613           JUNCTION     0.47     1.67     8.51     0  02:33        1.66
  YS02001616           JUNCTION     0.40     1.61     8.52     0  02:33        1.59
  YS02001619           JUNCTION     0.38     1.61     8.54     0  02:33        1.58
  YS02001622           JUNCTION     0.37     1.58     8.48     0  02:33        1.57
  YS02001625           JUNCTION     0.62     1.78     8.38     0  02:19        1.78
  YS02001629           JUNCTION     0.51     1.85     8.40     0  02:21        1.85
  YS02001633           JUNCTION     0.58     2.00     8.46     0  02:33        2.00
  YS02001641           JUNCTION     0.56     2.08     8.52     0  02:33        2.08
  YS02001644           JUNCTION     0.55     1.92     8.35     0  02:21        1.92
  YS02001647           JUNCTION     0.33     1.75     8.36     0  02:22        1.72
  YS02001649           JUNCTION     0.37     1.93     8.32     0  02:22        1.90
  YS02001652           JUNCTION     0.25     1.86     8.45     0  02:22        1.72
  YS02001655           JUNCTION     0.19     1.78     8.63     0  02:20        1.48
  YS02001658           JUNCTION     0.13     1.90     9.05     0  02:22        1.23
  YS02001661           JUNCTION     0.16     1.02     8.42     0  02:24        1.01
  YS02001664           JUNCTION     0.07     0.44     8.36     0  02:25        0.38
  YS02001745           JUNCTION     0.07     0.71     8.23     0  02:24        0.71
  YS02001748           JUNCTION     0.12     1.44     8.52     0  02:23        1.14
  YS02001751           JUNCTION     0.16     1.47     8.35     0  02:22        1.33
  YS02001754           JUNCTION     0.21     1.65     8.26     0  02:23        1.60
  YS02001757           JUNCTION     0.38     1.94     8.20     0  02:24        1.94
  YS02001759           JUNCTION     0.33     1.91     8.28     0  02:25        1.91
  YS02001762           JUNCTION     0.32     1.90     8.30     0  02:24        1.90
  YS02001765           JUNCTION     0.30     1.88     8.33     0  02:24        1.87
  YS02001767           JUNCTION     0.29     1.87     8.35     0  02:24        1.86
  YS02001770           JUNCTION     0.31     1.95     8.44     0  02:20        1.90
  YS02001774           JUNCTION     0.37     2.05     8.47     0  02:20        1.96
  YS02001779           JUNCTION     0.20     1.68     8.37     0  02:20        1.68
  YS02001783           JUNCTION     0.27     1.23     7.37     0  02:21        1.22
  YS02001784           JUNCTION     0.28     1.12     7.19     0  02:21        1.10
  YS02001786           JUNCTION     0.24     0.88     6.91     0  02:21        0.87
  YS02001788           JUNCTION     0.17     0.62     6.60     0  02:23        0.62
  YS02001790           JUNCTION     0.21     0.72     6.37     0  02:23        0.72
  YS02001791           JUNCTION     0.13     0.44     5.91     0  02:24        0.44
  YS02001793           JUNCTION     0.07     0.29     5.12     0  02:31        0.27
  YS02001882           JUNCTION     0.33     1.69     8.41     0  02:22        1.62
  YS02001884           JUNCTION     0.42     1.77     8.39     0  02:22        1.72
  YS02001887           JUNCTION     0.49     1.83     8.37     0  02:22        1.81
  YS02001890           JUNCTION     0.52     1.81     8.32     0  02:22        1.81
  YS02001895           JUNCTION     0.30     1.74     8.49     0  02:33        1.74
  YS02001898           JUNCTION     0.31     1.77     8.51     0  02:33        1.77
  YS02001901           JUNCTION     0.41     1.87     8.48     0  02:33        1.87
  YS02001904           JUNCTION     0.40     1.71     8.34     0  02:33        1.71
  YS02001907           JUNCTION     0.71     1.96     8.25     0  02:22        1.96
  YS02001910           JUNCTION     0.51     1.97     8.48     0  02:22        1.82
  YS02001915           JUNCTION     0.33     1.92     8.64     0  02:22        1.66
  YS02001918           JUNCTION     0.16     1.81     8.88     0  02:22        1.36
  YS02001920           JUNCTION     0.24     2.11     9.12     0  02:22        1.44
  YS02001923           JUNCTION     0.12     2.03     9.29     0  02:22        1.23
  YS02001926           JUNCTION     0.16     1.90     9.35     0  02:22        1.11
  YS02001929           JUNCTION     0.09     1.78     9.47     0  02:22        0.95
  YS02006553           JUNCTION     0.71     1.97     8.25     0  02:24        1.97
  YS02006556           JUNCTION     0.68     1.94     8.25     0  02:23        1.94
  YS02006558           JUNCTION     0.73     1.98     8.25     0  02:23        1.98
  YS02006561           JUNCTION     0.16     0.91     7.57     0  02:21        0.88
  YS02163301           JUNCTION     0.53     1.93     8.45     0  02:35        1.93
  YS02163601           JUNCTION     0.61     2.06     8.45     0  02:33        2.06
  YS02164001           JUNCTION     0.54     2.06     8.52     0  02:33        2.06
  CC-1                 OUTFALL      0.00     0.00     0.00     0  00:00        0.00
  CC-2                 OUTFALL      0.00     0.00     0.00     0  00:00        0.00
  JK-1                 OUTFALL      0.00     0.00     0.00     0  00:00        0.00
  JK-2                 OUTFALL      0.00     0.00     0.00     0  00:00        0.00
  WSC                  OUTFALL      0.23     0.35     1.02     0  03:23        0.35
  CC-storage           STORAGE      0.83     1.61     7.11     0  02:40        1.61
  JK-storage           STORAGE      2.89     4.23     5.03     0  02:30        4.19
  XR-storage           STORAGE      7.83     9.26     7.26     0  08:00        9.26
  
  
  *******************
  Node Inflow Summary
  *******************
  
  -------------------------------------------------------------------------------------------------
                                  Maximum  Maximum                  Lateral       Total        Flow
                                  Lateral    Total  Time of Max      Inflow      Inflow     Balance
                                   Inflow   Inflow   Occurrence      Volume      Volume       Error
  Node                 Type           LPS      LPS  days hr:min    10^6 ltr    10^6 ltr     Percent
  -------------------------------------------------------------------------------------------------
  WS02001211           JUNCTION      7.35   200.32     0  02:53       0.212        5.44       0.611
  WS02001212           JUNCTION      0.00   202.33     0  03:27           0        5.41       0.290
  WS02001213           JUNCTION      0.00   204.33     0  03:28           0        5.39       0.331
  WS02003059           JUNCTION      0.00   208.34     0  03:48           0        5.38       0.592
  WS02003060           JUNCTION     16.53   750.35     0  03:22       0.476        8.95       0.158
  WS02003066           JUNCTION      0.00   536.16     0  03:19           0        3.12       0.040
  WS02003067           JUNCTION      0.00   536.16     0  03:19           0        3.13       0.131
  WS02003069           JUNCTION      0.32   750.67     0  03:22     0.00922        8.94       0.167
  WS02003072           JUNCTION      0.00   750.67     0  03:22           0        8.92       0.228
  WS02003073           JUNCTION      1.82   752.49     0  03:23      0.0524        8.95       0.235
  WS02004138           JUNCTION      0.00   380.00     0  00:00           0        5.25       0.053
  WS02004139           JUNCTION      0.32   191.16     0  00:29     0.00924        5.26       0.509
  WS02004401           JUNCTION      0.00   538.23     0  02:43           0        3.23       0.309
  WS02004402           JUNCTION      0.00   536.89     0  02:32           0        3.22       0.315
  WS02004403           JUNCTION      0.00   536.67     0  02:32           0        3.21       0.309
  WS02004404           JUNCTION      0.16   536.42     0  03:02     0.00467         3.2       0.258
  WS02004405           JUNCTION      0.04   536.40     0  03:01      0.0011        3.19       0.386
  WS02004406           JUNCTION      0.00   536.88     0  03:02           0        3.18       0.644
  WS02004407           JUNCTION      0.00   536.34     0  03:03           0        3.16       0.031
  WS02004409           JUNCTION      0.00   536.21     0  03:11           0        3.16       0.076
  WS02004410           JUNCTION      0.00   536.18     0  03:18           0        3.16       0.129
  WS02004411           JUNCTION      0.00   536.18     0  03:16           0        3.15       0.168
  WS02004412           JUNCTION      0.00   536.17     0  03:18           0        3.15       0.228
  WS02004413           JUNCTION      0.00   536.17     0  03:18           0        3.14       0.409
  WS02006109           JUNCTION      1.23   601.20     0  02:17      0.0354        3.27       0.258
  WS02006110           JUNCTION      0.00   604.80     0  02:17           0        3.26       0.186
  WS02006111           JUNCTION      0.00   572.87     0  02:17           0        3.26       0.026
  WS02006112           JUNCTION      0.00   544.90     0  02:17           0        3.25       0.534
  WS02006113           JUNCTION      0.00   608.82     0  02:17           0        3.26       0.045
  WS02006115           JUNCTION      0.00   552.54     0  02:50           0        3.24       0.194
  WS02006116           JUNCTION      0.00   539.15     0  02:56           0        3.23       0.145
  WS02006228           JUNCTION      0.00   597.22     0  02:17           0        3.24       0.099
  WS02006229           JUNCTION      0.00   587.95     0  02:17           0        3.24       0.149
  WS02006230           JUNCTION     10.28   592.82     0  02:30       0.296        3.25       0.134
  WS02006231           JUNCTION      0.00   585.10     0  02:16           0        2.95      -0.106
  WS02006232           JUNCTION      0.00   584.01     0  02:16           0        2.96       0.344
  WS02006234           JUNCTION      0.00   577.72     0  02:16           0        2.95      -0.269
  WS02006235           JUNCTION      0.00   568.98     0  02:16           0        3.01       0.242
  WS02006238           JUNCTION      0.00   427.06     0  02:15           0        2.14      -0.128
  WS02006239           JUNCTION      0.00   426.16     0  02:15           0        2.11      -0.040
  WS02006240           JUNCTION      0.00   423.24     0  02:15           0        2.08      -0.088
  WS02006242           JUNCTION      0.00   423.60     0  02:15           0        2.06      -0.167
  WS02006243           JUNCTION      0.00   422.96     0  02:15           0        2.05      -0.083
  WS02006245           JUNCTION      0.00   422.18     0  02:15           0        2.06       0.453
  WS02006247           JUNCTION      0.00   422.42     0  02:35           0        2.06      -0.007
  WS02006248           JUNCTION      0.00   422.84     0  02:35           0        2.06      -0.100
  WS02006249           JUNCTION      0.00   458.97     0  00:00           0        2.29       0.517
  WS02006251           JUNCTION      0.08   406.28     0  02:15     0.00222         2.3       0.014
  WS02006252           JUNCTION      0.00   400.00     0  00:00           0        2.29      -0.264
  WS02006256           JUNCTION      0.00   327.86     0  02:05           0         1.3      -0.673
  WSF200               JUNCTION      0.00   536.16     0  03:19           0        3.12       0.017
  YS02001580           JUNCTION      0.00    79.86     0  02:17           0     0.00392      -0.053
  YS02001583           JUNCTION      0.00   148.62     0  02:17           0      0.0151      -3.901
  YS02001586           JUNCTION    540.83   540.83     0  02:26        1.12        1.13       0.100
  YS02001590           JUNCTION      0.00   317.92     0  02:36           0           1      -0.044
  YS02001593           JUNCTION      0.00   318.05     0  02:36           0           1       0.002
  YS02001596           JUNCTION      0.00   317.94     0  02:27           0           1      -0.002
  YS02001600           JUNCTION      0.00   317.97     0  02:22           0           1       0.011
  YS02001601           JUNCTION    916.86  1234.42     0  02:25        1.51        2.52       0.025
  YS02001602           JUNCTION      0.00   501.99     0  02:16           0        1.82       0.019
  YS02001605           JUNCTION      0.00   501.82     0  02:16           0        1.75       0.022
  YS02001607           JUNCTION      0.00   501.02     0  02:16           0        1.75       0.102
  YS02001610           JUNCTION      0.00   499.15     0  02:15           0        1.77       0.123
  YS02001613           JUNCTION      0.00   499.01     0  02:15           0        1.53       0.096
  YS02001616           JUNCTION      0.00   500.85     0  02:16           0        1.53       0.025
  YS02001619           JUNCTION    935.82   935.82     0  02:26        1.73        3.24       0.000
  YS02001622           JUNCTION      0.00   913.99     0  02:19           0        3.23      -0.004
  YS02001625           JUNCTION      0.00  1056.39     0  02:26           0        3.27       0.281
  YS02001629           JUNCTION      0.00   912.45     0  02:19           0        2.76       0.028
  YS02001633           JUNCTION    709.55  1307.83     0  02:19        1.14        3.85       0.089
  YS02001641           JUNCTION      0.00  1304.59     0  02:19           0         3.8       0.074
  YS02001644           JUNCTION    607.57  1652.28     0  02:19       0.937        4.73       0.069
  YS02001647           JUNCTION      0.00  1650.77     0  02:19           0        4.66       0.005
  YS02001649           JUNCTION      0.00  1844.57     0  02:18           0        5.55       0.003
  YS02001652           JUNCTION      0.00   642.91     0  02:25           0       0.896      -0.111
  YS02001655           JUNCTION      0.15   641.26     0  02:25     0.00443       0.896       0.028
  YS02001658           JUNCTION      0.00   639.22     0  02:25           0        0.89      -0.107
  YS02001661           JUNCTION      0.00   789.51     0  02:25           0       0.891       0.009
  YS02001664           JUNCTION    619.02   619.02     0  02:25        0.89        0.89      -0.007
  YS02001745           JUNCTION    369.41   369.41     0  02:25       0.514       0.514       0.223
  YS02001748           JUNCTION      0.04   534.61     0  02:22      0.0013       0.514      -0.323
  YS02001751           JUNCTION      0.01   384.02     0  02:24    0.000317       0.522       0.154
  YS02001754           JUNCTION      0.26   384.32     0  02:24     0.00749       0.539      -0.252
  YS02001757           JUNCTION      0.00  3031.11     0  02:24           0        7.95       0.012
  YS02001759           JUNCTION    540.10  1215.82     0  02:25        0.75        1.86      -0.008
  YS02001762           JUNCTION      0.00   688.66     0  02:26           0        1.11       0.003
  YS02001765           JUNCTION      0.00   687.90     0  02:26           0        1.11       0.003
  YS02001767           JUNCTION      0.54   687.24     0  02:26      0.0154        1.11       0.018
  YS02001770           JUNCTION    741.95   741.95     0  02:25        1.11        1.15      -0.022
  YS02001774           JUNCTION      0.00   309.43     0  02:20           0      0.0687       1.590
  YS02001779           JUNCTION      0.01   312.72     0  02:20    0.000144      0.0261      -1.971
  YS02001783           JUNCTION      0.00  1157.47     0  02:25           0        2.99       0.008
  YS02001784           JUNCTION      1.06  1158.13     0  02:25      0.0305        3.02       0.017
  YS02001786           JUNCTION      0.06  1157.72     0  02:25     0.00162        3.02       0.022
  YS02001788           JUNCTION      0.07  1157.83     0  02:25     0.00204        3.02       0.009
  YS02001790           JUNCTION      0.15  1171.36     0  02:25     0.00446        3.02       0.016
  YS02001791           JUNCTION      0.00  1278.62     0  02:23           0        3.02      -0.013
  YS02001793           JUNCTION      0.00  1249.18     0  02:24           0        3.02       0.007
  YS02001882           JUNCTION      0.00    31.98     0  02:19           0      0.0123       4.427
  YS02001884           JUNCTION      0.00    72.49     0  02:19           0      0.0481       5.054
  YS02001887           JUNCTION    568.50   569.00     0  02:25        0.78       0.814       0.530
  YS02001890           JUNCTION      0.00   569.87     0  02:25           0       0.773       0.643
  YS02001895           JUNCTION      0.00   514.16     0  02:26           0       0.759       0.166
  YS02001898           JUNCTION      0.00   513.71     0  02:26           0       0.758       0.022
  YS02001901           JUNCTION      0.00   514.38     0  02:26           0        0.76       0.414
  YS02001904           JUNCTION      0.00   514.19     0  02:26           0       0.764       0.343
  YS02001907           JUNCTION      0.00  1470.97     0  02:23           0        2.33       0.783
  YS02001910           JUNCTION      0.00   990.89     0  02:23           0        1.58       0.456
  YS02001915           JUNCTION    612.90   990.36     0  02:23       0.955        1.61       0.093
  YS02001918           JUNCTION      0.00   456.91     0  02:23           0       0.677      -0.013
  YS02001920           JUNCTION      2.87   456.36     0  02:23      0.0827       0.663       0.168
  YS02001923           JUNCTION      0.04   425.63     0  02:23     0.00109       0.566      -0.121
  YS02001926           JUNCTION      0.05   453.18     0  02:22      0.0015       0.547      -0.050
  YS02001929           JUNCTION    316.83   316.83     0  02:26       0.538       0.538      -0.089
  YS02006553           JUNCTION      0.00   809.67     0  02:33           0        1.95       0.606
  YS02006556           JUNCTION      0.00   804.19     0  02:33           0        1.96       0.414
  YS02006558           JUNCTION    739.46  1158.07     0  02:21        1.08        3.01       0.122
  YS02006561           JUNCTION      0.00  1157.25     0  02:21           0        2.99      -0.009
  YS02163301           JUNCTION      0.00   913.10     0  02:19           0        2.76       0.057
  YS02163601           JUNCTION      0.11  1307.52     0  02:19     0.00317         3.8       0.131
  YS02164001           JUNCTION      0.00  1306.84     0  02:19           0         3.8       0.062
  CC-1                 OUTFALL       0.00   683.00     0  00:00           0        3.33       0.000
  CC-2                 OUTFALL       0.00   683.00     0  00:00           0        3.07       0.000
  JK-1                 OUTFALL       0.00  1000.00     0  00:00           0        1.65       0.000
  JK-2                 OUTFALL       0.00  1000.00     0  00:00           0      0.0484       0.000
  WSC                  OUTFALL       0.00   752.49     0  03:23           0        8.93       0.000
  CC-storage           STORAGE       0.00  3030.72     0  02:24           0        10.2      -0.227
  JK-storage           STORAGE       0.00  1206.97     0  02:23           0        3.17       0.103
  XR-storage           STORAGE     200.00   200.00     0  00:00        5.76        6.36       0.001
  
  
  **********************
  Node Surcharge Summary
  **********************
  
  Surcharging occurs when water rises above the top of the highest conduit.
  ---------------------------------------------------------------------
                                               Max. Height   Min. Depth
                                   Hours       Above Crown    Below Rim
  Node                 Type      Surcharged         Meters       Meters
  ---------------------------------------------------------------------
  WS02006109           JUNCTION        1.33          0.475        1.345
  WS02006110           JUNCTION        0.76          0.591        1.259
  WS02006112           JUNCTION        0.87          0.084        1.596
  WS02006228           JUNCTION        1.33          1.088        1.112
  WS02006229           JUNCTION        1.35          1.235        1.215
  WS02006230           JUNCTION        0.76          0.914        0.656
  WS02006231           JUNCTION        0.88          1.212        0.318
  WS02006232           JUNCTION        1.39          1.480        0.000
  WS02006234           JUNCTION        1.06          1.240        0.000
  WS02006235           JUNCTION        1.30          1.290        0.000
  WS02006238           JUNCTION        1.35          1.303        0.127
  WS02006239           JUNCTION        1.32          1.153        0.137
  WS02006240           JUNCTION        1.33          1.027        0.363
  WS02006242           JUNCTION        1.34          0.820        0.000
  WS02006243           JUNCTION        1.32          0.729        0.041
  WS02006245           JUNCTION        1.32          0.617        0.233
  WS02006247           JUNCTION        1.32          0.760        0.000
  WS02006248           JUNCTION        1.31          0.380        0.000
  WS02006249           JUNCTION        1.31          0.390        0.000
  WS02006251           JUNCTION        0.95          0.515        0.665
  WS02006252           JUNCTION        1.48          1.100        0.000
  WS02006256           JUNCTION        3.61          2.050        0.000
  YS02001580           JUNCTION        0.39          0.450        0.000
  YS02001583           JUNCTION        0.40          0.391        0.109
  YS02001586           JUNCTION        0.49          0.510        0.000
  YS02001590           JUNCTION        0.55          0.750        0.000
  YS02001593           JUNCTION        0.56          0.715        0.125
  YS02001596           JUNCTION        0.66          0.953        0.117
  YS02001600           JUNCTION        0.79          1.190        0.000
  YS02001601           JUNCTION        1.11          1.440        0.000
  YS02001602           JUNCTION        1.01          1.270        0.000
  YS02001605           JUNCTION        0.96          1.180        0.000
  YS02001607           JUNCTION        0.53          0.656        0.024
  YS02001610           JUNCTION        0.55          0.680        0.000
  YS02001613           JUNCTION        0.52          0.668        0.032
  YS02001616           JUNCTION        0.49          0.610        0.000
  YS02001619           JUNCTION        0.48          0.608        0.002
  YS02001622           JUNCTION        0.48          0.581        0.039
  YS02001625           JUNCTION        0.63          0.780        0.000
  YS02001629           JUNCTION        0.44          0.470        0.000
  YS02001633           JUNCTION        0.65          0.982        0.078
  YS02001641           JUNCTION        0.59          1.081        0.019
  YS02001644           JUNCTION        0.56          0.920        0.000
  YS02001647           JUNCTION        0.39          0.746        0.154
  YS02001649           JUNCTION        0.48          0.927        0.123
  YS02001652           JUNCTION        0.34          0.826        0.304
  YS02001655           JUNCTION        0.24          0.783        0.417
  YS02001658           JUNCTION        0.12          0.903        0.397
  YS02001748           JUNCTION        0.06          0.359        0.831
  YS02001751           JUNCTION        0.17          0.468        0.732
  YS02001754           JUNCTION        0.27          0.603        0.547
  YS02001757           JUNCTION        0.54          0.936        0.274
  YS02001759           JUNCTION        0.45          0.914        0.296
  YS02001762           JUNCTION        0.43          0.899        0.251
  YS02001765           JUNCTION        0.40          0.878        0.222
  YS02001767           JUNCTION        0.37          0.866        0.164
  YS02001770           JUNCTION        0.35          0.920        0.000
  YS02001774           JUNCTION        0.41          1.050        0.000
  YS02001779           JUNCTION        0.27          0.680        0.000
  YS02001783           JUNCTION        0.34          0.434        1.166
  YS02001784           JUNCTION        0.32          0.321        1.169
  YS02001786           JUNCTION        0.22          0.083        1.347
  YS02001882           JUNCTION        0.29          0.692        0.138
  YS02001884           JUNCTION        0.30          0.710        0.160
  YS02001887           JUNCTION        0.33          0.777        0.173
  YS02001890           JUNCTION        0.34          0.760        0.000
  YS02001895           JUNCTION        0.28          0.743        0.007
  YS02001898           JUNCTION        0.27          0.740        0.000
  YS02001901           JUNCTION        0.32          0.870        0.000
  YS02001904           JUNCTION        0.31          0.714        0.136
  YS02001907           JUNCTION        0.54          0.950        0.000
  YS02001910           JUNCTION        0.36          0.970        0.130
  YS02001915           JUNCTION        0.29          0.919        0.081
  YS02001918           JUNCTION        0.21          0.810        0.000
  YS02001920           JUNCTION        0.23          1.109        0.031
  YS02001923           JUNCTION        0.01          0.820        0.000
  YS02001926           JUNCTION        0.01          0.900        0.000
  YS02001929           JUNCTION        0.01          0.780        0.000
  YS02006553           JUNCTION        0.55          0.969        0.221
  YS02006556           JUNCTION        0.45          0.900        0.450
  YS02006558           JUNCTION        0.44          0.884        0.516
  YS02006561           JUNCTION        0.18          0.110        1.040
  YS02163301           JUNCTION        0.63          0.933        0.097
  YS02163601           JUNCTION        0.68          1.055        0.025
  YS02164001           JUNCTION        0.60          1.062        0.038
  
  
  *********************
  Node Flooding Summary
  *********************
  
  Flooding refers to all water that overflows a node, whether it ponds or not.
  --------------------------------------------------------------------------
                                                             Total   Maximum
                                 Maximum   Time of Max       Flood    Ponded
                        Hours       Rate    Occurrence      Volume     Depth
  Node                 Flooded       LPS   days hr:min    10^6 ltr    Meters
  --------------------------------------------------------------------------
  WS02006232              0.01      2.76      0  02:17       0.000     0.000
  WS02006234              0.01      4.66      0  02:17       0.000     0.000
  WS02006235              0.01      5.14      0  02:17       0.000     0.000
  WS02006242              0.01     22.80      0  02:35       0.000     0.000
  WS02006247              0.01     34.12      0  02:14       0.000     0.000
  WS02006248              0.02     25.19      0  02:17       0.001     0.000
  WS02006249              0.91    104.37      0  02:17       0.222     0.000
  WS02006252              0.01    253.00      0  03:35       0.000     0.000
  WS02006256              1.21    322.01      0  02:05       0.414     0.000
  YS02001580              0.01     44.94      0  02:17       0.000     0.000
  YS02001586              0.29    223.22      0  02:26       0.119     0.000
  YS02001590              0.01      0.07      0  02:35       0.000     0.000
  YS02001600              0.01      1.27      0  02:17       0.000     0.000
  YS02001601              0.43    836.40      0  02:25       0.694     0.000
  YS02001602              0.34     62.10      0  02:33       0.068     0.000
  YS02001605              0.01      0.46      0  02:17       0.000     0.000
  YS02001610              0.30    417.48      0  02:26       0.253     0.000
  YS02001616              0.01      7.28      0  02:33       0.000     0.000
  YS02001625              0.27   1056.32      0  02:26       0.549     0.000
  YS02001629              0.06     61.77      0  02:23       0.007     0.000
  YS02001644              0.09    371.78      0  02:25       0.070     0.000
  YS02001770              0.01     68.11      0  02:20       0.000     0.000
  YS02001774              0.01     10.48      0  02:20       0.000     0.000
  YS02001779              0.06    254.59      0  02:20       0.009     0.000
  YS02001890              0.07     63.25      0  02:25       0.009     0.000
  YS02001898              0.01      0.93      0  02:33       0.000     0.000
  YS02001901              0.01      0.48      0  02:33       0.000     0.000
  YS02001907              0.17    986.73      0  02:26       0.372     0.000
  YS02001918              0.01     79.94      0  02:22       0.001     0.000
  YS02001923              0.01     62.00      0  02:22       0.000     0.000
  YS02001926              0.01     42.65      0  02:22       0.000     0.000
  YS02001929              0.01    246.72      0  02:22       0.001     0.000
  
  
  **********************
  Storage Volume Summary
  **********************
  
  ------------------------------------------------------------------------------------------------
                         Average    Avg   Evap  Exfil     Maximum    Max    Time of Max    Maximum
                          Volume   Pcnt   Pcnt   Pcnt      Volume   Pcnt     Occurrence    Outflow
  Storage Unit           1000 m³   Full   Loss   Loss     1000 m³   Full    days hr:min        LPS
  ------------------------------------------------------------------------------------------------
  CC-storage               2.317   36.1    0.0    0.0       4.485   70.0       0  02:40    1783.53
  JK-storage               0.145   49.8    0.0    0.0       0.213   73.0       0  02:30    2300.00
  XR-storage               0.939   65.2    0.0    0.0       1.111   77.2       0  08:00     380.00
  
  
  ***********************
  Outfall Loading Summary
  ***********************
  
  -----------------------------------------------------------
                         Flow       Avg       Max       Total
                         Freq      Flow      Flow      Volume
  Outfall Node           Pcnt       LPS       LPS    10^6 ltr
  -----------------------------------------------------------
  CC-1                  28.63    683.00    683.00       3.325
  CC-2                  26.10    683.00    683.00       3.072
  JK-1                  12.63   1000.00   1000.00       1.651
  JK-2                   0.25   1000.00   1000.00       0.048
  WSC                   99.93    370.70    752.49       8.932
  -----------------------------------------------------------
  System                33.51   3736.70   3366.23      17.029
  
  
  ********************
  Link Flow Summary
  ********************
  
  -----------------------------------------------------------------------------
                                 Maximum  Time of Max   Maximum    Max/    Max/
                                  |Flow|   Occurrence   |Veloc|    Full    Full
  Link                 Type          LPS  days hr:min     m/sec    Flow   Depth
  -----------------------------------------------------------------------------
  1                    CONDUIT    752.49     0  03:23      3.08    0.26    0.35
  WS02001211WS02001212 CONDUIT    202.33     0  03:27      0.54    0.15    0.51
  WS02001212WS02001213 CONDUIT    204.33     0  03:28      1.04    0.32    0.36
  WS02001213WS02003059 CONDUIT    208.34     0  03:48      0.47    0.34    0.67
  WS02003059WS02003060 CONDUIT    215.05     0  03:48      0.67    0.14    0.58
  WS02003060WS02003069 CONDUIT    750.35     0  03:22      1.77    0.29    0.40
  WS02003066WSF200     CONDUIT    536.16     0  03:19      2.73    0.09    0.23
  WS02003067WS02003066 CONDUIT    536.16     0  03:19      1.21    0.17    0.42
  WS02003069WS02003072 CONDUIT    750.67     0  03:22      1.51    0.36    0.45
  WS02003072WS02003073 CONDUIT    750.67     0  03:23      1.60    1.62    0.43
  WS02004138WS02004139 CONDUIT    190.84     0  00:29      2.17    0.04    0.33
  WS02004139WS02001211 CONDUIT    192.97     0  02:53      0.54    0.24    0.47
  WS02004401WS02004402 CONDUIT    536.89     0  02:32      0.97    0.64    0.86
  WS02004402WS02004403 CONDUIT    536.67     0  02:32      0.97    0.77    0.88
  WS02004403WS02004404 CONDUIT    536.26     0  03:02      0.92    0.39    0.93
  WS02004404WS02004405 CONDUIT    536.36     0  03:01      1.08    5.25    0.96
  WS02004405WS02004406 CONDUIT    536.88     0  03:02      0.99    1.06    0.96
  WS02004406WS02004407 CONDUIT    536.34     0  03:03      1.04    0.24    0.63
  WS02004407WS02004409 CONDUIT    536.21     0  03:11      1.50    0.19    0.48
  WS02004409WS02004410 CONDUIT    536.18     0  03:18      0.98    0.69    0.67
  WS02004410WS02004411 CONDUIT    536.18     0  03:16      0.94    0.73    0.69
  WS02004411WS02004412 CONDUIT    536.17     0  03:18      0.92    0.76    0.69
  WS02004412WS02004413 CONDUIT    536.17     0  03:18      0.82    0.36    0.78
  WS02004413WS02003067 CONDUIT    536.16     0  03:19      1.11    0.23    0.59
  WS02006109WS02006110 CONDUIT    604.80     0  02:17      1.21    1.16    1.00
  WS02006110WS02006113 CONDUIT    608.82     0  02:17      1.47    0.55    0.79
  WS02006111WS02006112 CONDUIT    544.90     0  02:17      1.82    0.26    0.67
  WS02006112WS02006115 CONDUIT    552.54     0  02:50      0.81    0.33    0.87
  WS02006113WS02006111 CONDUIT    572.87     0  02:17      2.50    0.69    0.47
  WS02006115WS02006116 CONDUIT    539.15     0  02:56      0.97    0.69    0.76
  WS02006116WS02004401 CONDUIT    538.23     0  02:43      0.98    0.74    0.84
  WS02006228WS02006109 CONDUIT    599.97     0  02:17      1.19    2.62    1.00
  WS02006229WS02006228 CONDUIT    597.22     0  02:17      1.19    1.98    1.00
  WS02006230WS02006229 CONDUIT    587.95     0  02:17      1.53   13.08    1.00
  WS02006231WS02006230 CONDUIT    582.54     0  02:30      1.58    8.84    1.00
  WS02006232WS02006231 CONDUIT    585.10     0  02:16      1.53    1.23    1.00
  WS02006234WS02006232 CONDUIT    584.01     0  02:16      1.52    1.18    1.00
  WS02006235WS02006234 CONDUIT    577.72     0  02:16      1.50    6.10    1.00
  WS02006238WS02006235 CONDUIT    429.40     0  02:15      1.57    0.96    1.00
  WS02006239WS02006238 CONDUIT    427.06     0  02:15      1.11    1.37    1.00
  WS02006240WS02006239 CONDUIT    426.16     0  02:15      1.24    1.34    1.00
  WS02006242WS02006240 CONDUIT    423.24     0  02:15      1.12    1.68    1.00
  WS02006243WS02006242 CONDUIT    423.60     0  02:15      1.39    0.91    1.00
  WS02006245WS02006243 CONDUIT    422.96     0  02:15      1.45    1.25    1.00
  WS02006247WS02006245 CONDUIT    422.18     0  02:15      1.44    3.35    1.00
  WS02006248WS02006247 CONDUIT    422.42     0  02:35      1.45    0.92    1.00
  WS02006249WS02006248 CONDUIT    422.84     0  02:35      1.37    2.32    1.00
  WS02006251WS02006249 CONDUIT    458.97     0  00:00      1.99    1.32    1.00
  WS02006252WS02006251 CONDUIT    406.20     0  02:15     25.29    1.49    1.00
  WS02006256WS02006235 CONDUIT    288.91     0  00:00      4.23    3.06    1.00
  WSF200WS02003060     CONDUIT    536.16     0  03:21      1.75    0.12    0.32
  YS02001580YS02001583 CONDUIT     79.86     0  02:17      0.57    0.31    1.00
  YS02001583YS02001586 CONDUIT    148.62     0  02:17      0.60    0.22    1.00
  YS02001586YS02001590 CONDUIT    317.92     0  02:36      1.26    0.56    1.00
  YS02001590YS02001593 CONDUIT    318.05     0  02:36      1.12    2.00    1.00
  YS02001593YS02001596 CONDUIT    317.94     0  02:27      1.74    0.50    1.00
  YS02001596YS02001600 CONDUIT    317.97     0  02:22      1.24    0.62    1.00
  YS02001600YS02001601 CONDUIT    317.99     0  02:35      1.12    0.55    1.00
  YS02001601YS02001602 CONDUIT    501.99     0  02:16      1.78    1.81    1.00
  YS02001602YS02001605 CONDUIT    501.82     0  02:16      1.77   10.62    1.00
  YS02001605YS02001607 CONDUIT    501.02     0  02:16      1.77    2.75    1.00
  YS02001607YS02001610 CONDUIT    499.15     0  02:15      0.64    0.47    1.00
  YS02001610YS02001613 CONDUIT    499.01     0  02:15      0.64    0.58    1.00
  YS02001613YS02001616 CONDUIT    500.85     0  02:16      0.64    0.43    1.00
  YS02001616YS02001619 CONDUIT    495.19     0  02:16      0.66    0.86    1.00
  YS02001619YS02001622 CONDUIT    913.99     0  02:19      1.17    1.35    1.00
  YS02001622YS02001625 CONDUIT    913.00     0  02:19      1.16    0.49    1.00
  YS02001625YS02001629 CONDUIT    912.45     0  02:19      1.16    0.43    1.00
  YS02001629YS02163301 CONDUIT    913.10     0  02:19      1.16    1.12    1.00
  YS02001633YS02163601 CONDUIT   1307.41     0  02:19      1.66    1.37    1.00
  YS02001641YS02001644 CONDUIT   1305.48     0  02:19      1.66    4.22    1.00
  YS02001644YS02001647 CONDUIT   1650.77     0  02:19      2.13    0.97    1.00
  YS02001647YS02001649 CONDUIT   1667.37     0  02:19      2.27    0.88    1.00
  YS02001649YS02001757 CONDUIT   1823.81     0  02:18      2.36    1.11    1.00
  YS02001652YS02001649 CONDUIT    644.32     0  02:25      0.82    0.32    1.00
  YS02001655YS02001652 CONDUIT    642.91     0  02:25      1.26    0.31    1.00
  YS02001658YS02001655 CONDUIT    641.11     0  02:25      1.86    0.27    1.00
  YS02001661YS02001658 CONDUIT    639.22     0  02:25      2.20    0.25    0.97
  YS02001664YS02001661 CONDUIT    789.51     0  02:25      2.14    0.25    0.67
  YS02001745YS02001748 CONDUIT    534.57     0  02:22      2.01    0.21    0.86
  YS02001748YS02001751 CONDUIT    384.01     0  02:24      1.59    0.19    1.00
  YS02001751YS02001754 CONDUIT    384.06     0  02:24      1.40    0.19    1.00
  YS02001754YS02001757 CONDUIT    384.05     0  02:24      0.49    0.15    1.00
  YS02001757CaochengTiaoxuchi CONDUIT   3030.72     0  02:24      3.86    1.31    1.00
  YS02001759YS02001757 CONDUIT   1216.77     0  02:25      1.55    0.86    1.00
  YS02001762YS02001759 CONDUIT    689.30     0  02:26      0.88    0.79    1.00
  YS02001765YS02001762 CONDUIT    688.66     0  02:26      0.88    0.65    1.00
  YS02001767YS02001765 CONDUIT    687.90     0  02:26      0.88    0.87    1.00
  YS02001770YS02001767 CONDUIT    686.70     0  02:26      0.87    2.72    1.00
  YS02001774YS02001770 CONDUIT    309.43     0  02:20      0.39    0.20    1.00
  YS02001779YS02001774 CONDUIT    312.71     0  02:20      0.41    0.16    1.00
  YS02001783YS02001784 CONDUIT   1157.07     0  02:25      2.30    1.60    1.00
  YS02001784YS02001785 CONDUIT   1157.66     0  02:25      2.30    2.69    1.00
  YS02001786YS02001788 CONDUIT   1157.76     0  02:25      2.47    2.23    0.89
  YS02001788YS02001790 CONDUIT   1171.20     0  02:25      2.72    0.86    0.83
  YS02001790YS02001791 CONDUIT   1278.62     0  02:23      3.43    1.39    0.70
  YS02001791YS02001793 CONDUIT   1249.18     0  02:24      6.46    0.54    0.44
  YS02001793JiankangQianchi CONDUIT   1206.97     0  02:23      2.35    0.10    0.65
  YS02001882YS02001884 CONDUIT     31.98     0  02:19      0.10    0.04    1.00
  YS02001884YS02001887 CONDUIT     72.49     0  02:19      0.09    0.10    1.00
  YS02001887YS02001890 CONDUIT    569.87     0  02:25      0.73    0.98    1.00
  YS02001890YS02001895 CONDUIT    514.16     0  02:26      0.65    0.24    1.00
  YS02001895YS02001898 CONDUIT    513.71     0  02:26      0.65    0.89    1.00
  YS02001898YS02001901 CONDUIT    514.38     0  02:26      0.65    0.33    1.00
  YS02001901YS02001904 CONDUIT    514.19     0  02:26      0.65    0.80    1.00
  YS02001904YS02001907 CONDUIT    514.21     0  02:26      0.65    0.18    1.00
  YS02001907YS02006553 CONDUIT    809.67     0  02:33      0.90    0.95    1.00
  YS02001910YS02001907 CONDUIT    990.36     0  02:23      1.26    0.56    1.00
  YS02001915YS02001910 CONDUIT    990.89     0  02:23      1.26    0.49    1.00
  YS02001918YS02001915 CONDUIT    458.71     0  02:23      0.58    0.25    1.00
  YS02001920YS02001918 CONDUIT    456.91     0  02:23      0.64    0.44    1.00
  YS02001923YS02001920 CONDUIT    453.49     0  02:23      0.71    0.20    1.00
  YS02001926YS02001923 CONDUIT    425.60     0  02:23      0.97    0.61    1.00
  YS02001929YS02001926 CONDUIT    421.61     0  02:23      1.12    0.20    1.00
  YS02006553YS02006556 CONDUIT    804.19     0  02:33      1.02    0.69    1.00
  YS02006556YS02006558 CONDUIT    804.34     0  02:33      1.02    0.64    1.00
  YS02006558YS02006561 CONDUIT   1157.25     0  02:21      4.09    2.56    1.00
  YS02006561YS02001783 CONDUIT   1157.47     0  02:25      2.30    0.60    1.00
  YS02163301YS02001633 CONDUIT    913.50     0  02:19      1.16    0.86    1.00
  YS02163601YS02164001 CONDUIT   1306.84     0  02:19      1.66    1.16    1.00
  YS02164001YS02001641 CONDUIT   1304.59     0  02:19      1.66    1.78    1.00
  CC-R1                PUMP       683.00     0  00:00              1.00
  CC-R2                PUMP       683.00     0  00:00              1.00
  CC-S1                PUMP       200.00     0  00:00              1.00
  CC-S2                PUMP       200.00     0  00:00              1.00
  JK-R1                PUMP      1000.00     0  00:00              1.00
  JK-R2                PUMP      1000.00     0  00:00              1.00
  JK-S                 PUMP       300.00     0  00:00              1.00
  XR-1                 PUMP        95.00     0  00:00              1.00
  XR-2                 PUMP        95.00     0  00:00              1.00
  XR-3                 PUMP        95.00     0  00:00              1.00
  XR-4                 PUMP        95.00     0  00:00              1.00
  
  
  ***************************
  Flow Classification Summary
  ***************************
  
  -------------------------------------------------------------------------------------
                      Adjusted    ---------- Fraction of Time in Flow Class ---------- 
                       /Actual         Up    Down  Sub   Sup   Up    Down  Norm  Inlet 
  Conduit               Length    Dry  Dry   Dry   Crit  Crit  Crit  Crit  Ltd   Ctrl  
  -------------------------------------------------------------------------------------
  1                       1.00   0.00  0.00  0.00  0.00  1.00  0.00  0.00  0.16  0.00
  WS02001211WS02001212    1.00   0.00  0.02  0.00  0.98  0.00  0.00  0.00  0.00  0.00
  WS02001212WS02001213    1.00   0.02  0.00  0.00  0.19  0.00  0.79  0.00  0.00  0.00
  WS02001213WS02003059    1.00   0.00  0.01  0.00  0.99  0.00  0.00  0.00  0.00  0.00
  WS02003059WS02003060    1.00   0.00  0.00  0.00  1.00  0.00  0.00  0.00  0.03  0.00
  WS02003060WS02003069    1.00   0.00  0.00  0.00  0.98  0.02  0.00  0.00  0.72  0.00
  WS02003066WSF200        1.00   0.13  0.00  0.00  0.00  0.87  0.00  0.00  0.74  0.00
  WS02003067WS02003066    1.00   0.10  0.02  0.00  0.88  0.00  0.00  0.00  0.00  0.00
  WS02003069WS02003072    1.00   0.00  0.00  0.00  1.00  0.00  0.00  0.00  0.78  0.00
  WS02003072WS02003073    1.00   0.00  0.00  0.00  0.00  0.00  0.00  1.00  0.00  0.00
  WS02004138WS02004139    1.00   0.00  0.00  0.00  0.97  0.01  0.00  0.02  0.98  0.00
  WS02004139WS02001211    1.00   0.00  0.00  0.00  0.99  0.00  0.00  0.00  0.00  0.00
  WS02004401WS02004402    1.00   0.02  0.00  0.00  0.98  0.00  0.00  0.00  0.00  0.00
  WS02004402WS02004403    1.00   0.02  0.00  0.00  0.97  0.00  0.00  0.00  0.00  0.00
  WS02004403WS02004404    1.00   0.00  0.03  0.00  0.97  0.00  0.00  0.00  0.00  0.00
  WS02004404WS02004405    1.00   0.00  0.00  0.00  1.00  0.00  0.00  0.00  0.00  0.00
  WS02004405WS02004406    1.00   0.00  0.00  0.00  1.00  0.00  0.00  0.00  0.00  0.00
  WS02004406WS02004407    1.00   0.00  0.05  0.00  0.95  0.00  0.00  0.00  0.00  0.00
  WS02004407WS02004409    1.00   0.05  0.00  0.00  0.94  0.01  0.00  0.00  0.94  0.00
  WS02004409WS02004410    1.00   0.05  0.00  0.00  0.95  0.00  0.00  0.00  0.03  0.00
  WS02004410WS02004411    1.00   0.05  0.00  0.00  0.95  0.00  0.00  0.00  0.01  0.00
  WS02004411WS02004412    1.00   0.05  0.00  0.00  0.95  0.00  0.00  0.00  0.00  0.00
  WS02004412WS02004413    1.00   0.05  0.00  0.00  0.94  0.00  0.00  0.00  0.01  0.00
  WS02004413WS02003067    1.00   0.06  0.04  0.00  0.00  0.00  0.90  0.00  0.00  0.00
  WS02006109WS02006110    1.00   0.00  0.01  0.00  0.98  0.00  0.01  0.00  0.00  0.00
  WS02006110WS02006113    1.00   0.01  0.01  0.00  0.98  0.00  0.00  0.00  0.00  0.00
  WS02006111WS02006112    1.00   0.02  0.00  0.00  0.98  0.00  0.00  0.00  0.98  0.00
  WS02006112WS02006115    1.00   0.02  0.00  0.00  0.97  0.00  0.00  0.00  0.00  0.00
  WS02006113WS02006111    1.00   0.02  0.00  0.00  0.00  0.98  0.00  0.00  0.08  0.00
  WS02006115WS02006116    1.00   0.02  0.00  0.00  0.97  0.00  0.00  0.01  0.00  0.00
  WS02006116WS02004401    1.00   0.02  0.00  0.00  0.98  0.00  0.00  0.00  0.00  0.00
  WS02006228WS02006109    1.00   0.00  0.00  0.00  1.00  0.00  0.00  0.00  0.00  0.00
  WS02006229WS02006228    1.00   0.00  0.00  0.00  0.99  0.00  0.00  0.01  0.00  0.00
  WS02006230WS02006229    1.00   0.00  0.00  0.00  0.99  0.00  0.00  0.01  0.01  0.00
  WS02006231WS02006230    1.00   0.00  0.00  0.00  0.18  0.00  0.82  0.00  0.00  0.00
  WS02006232WS02006231    1.00   0.00  0.00  0.00  0.99  0.00  0.01  0.00  0.00  0.00
  WS02006234WS02006232    1.00   0.00  0.00  0.00  1.00  0.00  0.00  0.00  0.40  0.00
  WS02006235WS02006234    1.00   0.00  0.00  0.00  0.54  0.00  0.46  0.00  0.00  0.00
  WS02006238WS02006235    1.00   0.00  0.00  0.00  1.00  0.00  0.00  0.00  0.00  0.00
  WS02006239WS02006238    1.00   0.00  0.00  0.00  1.00  0.00  0.00  0.00  0.55  0.00
  WS02006240WS02006239    1.00   0.00  0.00  0.00  0.37  0.00  0.00  0.63  0.01  0.00
  WS02006242WS02006240    1.00   0.00  0.00  0.00  1.00  0.00  0.00  0.00  0.00  0.00
  WS02006243WS02006242    1.00   0.00  0.00  0.00  0.99  0.00  0.00  0.01  0.75  0.00
  WS02006245WS02006243    1.00   0.00  0.00  0.00  0.43  0.00  0.00  0.57  0.01  0.00
  WS02006247WS02006245    1.00   0.00  0.00  0.00  0.99  0.00  0.00  0.01  0.00  0.00
  WS02006248WS02006247    1.00   0.00  0.00  0.00  0.99  0.00  0.00  0.01  0.21  0.00
  WS02006249WS02006248    1.00   0.00  0.00  0.00  0.29  0.00  0.71  0.00  0.00  0.00
  WS02006251WS02006249    1.00   0.00  0.00  0.00  0.99  0.01  0.00  0.00  0.75  0.00
  WS02006252WS02006251    1.00   0.00  0.75  0.00  0.12  0.00  0.13  0.00  0.00  0.00
  WS02006256WS02006235    1.00   0.00  0.00  0.00  0.99  0.01  0.00  0.00  0.00  0.00
  WSF200WS02003060        1.00   0.00  0.13  0.00  0.70  0.17  0.00  0.00  0.68  0.00
  YS02001580YS02001583    1.00   0.28  0.56  0.00  0.16  0.00  0.00  0.00  0.65  0.00
  YS02001583YS02001586    1.00   0.49  0.30  0.00  0.21  0.00  0.00  0.00  0.65  0.00
  YS02001586YS02001590    1.00   0.13  0.00  0.00  0.39  0.04  0.00  0.44  0.36  0.00
  YS02001590YS02001593    1.00   0.13  0.01  0.00  0.08  0.00  0.78  0.00  0.00  0.00
  YS02001593YS02001596    1.00   0.14  0.00  0.00  0.10  0.01  0.00  0.76  0.02  0.00
  YS02001596YS02001600    1.00   0.14  0.00  0.00  0.16  0.01  0.00  0.69  0.05  0.00
  YS02001600YS02001601    1.00   0.13  0.01  0.00  0.86  0.00  0.00  0.00  0.63  0.00
  YS02001601YS02001602    1.00   0.13  0.01  0.00  0.86  0.00  0.00  0.00  0.00  0.00
  YS02001602YS02001605    1.00   0.14  0.00  0.00  0.86  0.00  0.00  0.00  0.00  0.00
  YS02001605YS02001607    1.00   0.14  0.00  0.00  0.86  0.00  0.00  0.00  0.00  0.00
  YS02001607YS02001610    1.00   0.13  0.01  0.00  0.86  0.00  0.00  0.00  0.02  0.00
  YS02001610YS02001613    1.00   0.13  0.00  0.00  0.87  0.00  0.00  0.00  0.01  0.00
  YS02001613YS02001616    1.00   0.13  0.00  0.00  0.87  0.00  0.00  0.00  0.01  0.00
  YS02001616YS02001619    1.00   0.13  0.00  0.00  0.87  0.00  0.00  0.00  0.00  0.00
  YS02001619YS02001622    1.00   0.13  0.00  0.00  0.87  0.00  0.00  0.00  0.34  0.00
  YS02001622YS02001625    1.00   0.13  0.00  0.00  0.87  0.00  0.00  0.00  0.05  0.00
  YS02001625YS02001629    1.00   0.13  0.06  0.00  0.12  0.00  0.69  0.00  0.00  0.00
  YS02001629YS02163301    1.00   0.16  0.01  0.00  0.83  0.00  0.00  0.00  0.00  0.00
  YS02001633YS02163601    1.00   0.00  0.01  0.00  0.99  0.00  0.00  0.00  0.15  0.00
  YS02001641YS02001644    1.00   0.00  0.01  0.00  0.99  0.00  0.00  0.00  0.00  0.00
  YS02001644YS02001647    1.00   0.00  0.18  0.00  0.82  0.00  0.00  0.00  0.00  0.00
  YS02001647YS02001649    1.00   0.00  0.18  0.00  0.53  0.28  0.00  0.00  0.58  0.00
  YS02001649YS02001757    1.00   0.00  0.00  0.00  0.69  0.31  0.00  0.00  0.53  0.00
  YS02001652YS02001649    1.00   0.00  0.00  0.00  0.96  0.04  0.00  0.00  0.79  0.00
  YS02001655YS02001652    1.00   0.00  0.00  0.00  0.14  0.01  0.00  0.85  0.04  0.00
  YS02001658YS02001655    1.00   0.00  0.14  0.00  0.64  0.22  0.00  0.00  0.73  0.00
  YS02001661YS02001658    1.00   0.14  0.00  0.00  0.51  0.35  0.00  0.00  0.74  0.00
  YS02001664YS02001661    1.00   0.13  0.00  0.00  0.79  0.09  0.00  0.00  0.86  0.00
  YS02001745YS02001748    1.00   0.00  0.00  0.00  0.06  0.01  0.00  0.93  0.03  0.00
  YS02001748YS02001751    1.00   0.00  0.00  0.00  0.81  0.19  0.00  0.00  0.76  0.00
  YS02001751YS02001754    1.00   0.00  0.00  0.00  0.12  0.00  0.00  0.88  0.03  0.00
  YS02001754YS02001757    1.00   0.00  0.00  0.00  1.00  0.00  0.00  0.00  0.87  0.00
  YS02001757CaochengTiaoxuchi    1.00   0.00  0.00  0.00  1.00  0.00  0.00  0.00  0.86  0.00
  YS02001759YS02001757    1.00   0.00  0.00  0.00  1.00  0.00  0.00  0.00  0.63  0.00
  YS02001762YS02001759    1.00   0.00  0.00  0.00  1.00  0.00  0.00  0.00  0.06  0.00
  YS02001765YS02001762    1.00   0.00  0.00  0.00  1.00  0.00  0.00  0.00  0.76  0.00
  YS02001767YS02001765    1.00   0.00  0.00  0.00  1.00  0.00  0.00  0.00  0.00  0.00
  YS02001770YS02001767    1.00   0.00  0.00  0.00  1.00  0.00  0.00  0.00  0.00  0.00
  YS02001774YS02001770    1.00   0.00  0.13  0.00  0.60  0.00  0.26  0.00  0.04  0.00
  YS02001779YS02001774    1.00   0.00  0.00  0.00  1.00  0.00  0.00  0.00  0.80  0.00
  YS02001783YS02001784    1.00   0.00  0.19  0.00  0.81  0.00  0.00  0.00  0.57  0.00
  YS02001784YS02001785    1.00   0.00  0.00  0.00  1.00  0.00  0.00  0.00  0.18  0.00
  YS02001786YS02001788    1.00   0.00  0.00  0.00  0.80  0.20  0.00  0.00  0.00  0.00
  YS02001788YS02001790    1.00   0.00  0.00  0.00  0.22  0.78  0.00  0.00  0.84  0.00
  YS02001790YS02001791    1.00   0.00  0.00  0.00  0.01  0.99  0.00  0.00  0.15  0.00
  YS02001791YS02001793    1.00   0.00  0.00  0.00  0.00  1.00  0.00  0.00  0.01  0.00
  YS02001793JiankangQianchi    1.00   0.00  0.00  0.00  1.00  0.00  0.00  0.00  0.97  0.00
  YS02001882YS02001884    1.00   0.16  0.01  0.00  0.83  0.00  0.00  0.00  0.00  0.00
  YS02001884YS02001887    1.00   0.06  0.05  0.00  0.89  0.00  0.00  0.00  0.00  0.00
  YS02001887YS02001890    1.00   0.00  0.00  0.00  0.97  0.00  0.03  0.00  0.00  0.00
  YS02001890YS02001895    1.00   0.00  0.17  0.00  0.83  0.00  0.00  0.00  0.00  0.00
  YS02001895YS02001898    1.00   0.17  0.00  0.00  0.80  0.00  0.02  0.00  0.00  0.00
  YS02001898YS02001901    1.00   0.17  0.00  0.00  0.82  0.00  0.00  0.00  0.01  0.00
  YS02001901YS02001904    1.00   0.17  0.00  0.00  0.83  0.00  0.00  0.00  0.00  0.00
  YS02001904YS02001907    1.00   0.00  0.17  0.00  0.83  0.00  0.00  0.00  0.00  0.00
  YS02001907YS02006553    1.00   0.00  0.02  0.00  0.98  0.00  0.00  0.00  0.00  0.00
  YS02001910YS02001907    1.00   0.00  0.00  0.00  0.97  0.00  0.00  0.03  0.12  0.00
  YS02001915YS02001910    1.00   0.00  0.00  0.00  0.96  0.04  0.00  0.00  0.17  0.00
  YS02001918YS02001915    1.00   0.00  0.01  0.00  0.98  0.02  0.00  0.00  0.78  0.00
  YS02001920YS02001918    1.00   0.00  0.01  0.00  0.99  0.00  0.00  0.00  0.00  0.00
  YS02001923YS02001920    1.00   0.00  0.00  0.00  1.00  0.00  0.00  0.00  0.95  0.00
  YS02001926YS02001923    1.00   0.00  0.07  0.00  0.04  0.00  0.89  0.00  0.00  0.00
  YS02001929YS02001926    1.00   0.00  0.13  0.00  0.87  0.00  0.00  0.00  0.84  0.00
  YS02006553YS02006556    1.00   0.01  0.00  0.00  0.99  0.00  0.00  0.00  0.03  0.00
  YS02006556YS02006558    1.00   0.00  0.00  0.00  1.00  0.00  0.00  0.00  0.00  0.00
  YS02006558YS02006561    1.00   0.19  0.00  0.00  0.03  0.78  0.00  0.00  0.17  0.00
  YS02006561YS02001783    1.00   0.19  0.00  0.00  0.06  0.75  0.00  0.00  0.71  0.00
  YS02163301YS02001633    1.00   0.00  0.16  0.00  0.84  0.00  0.00  0.00  0.00  0.00
  YS02163601YS02164001    1.00   0.00  0.08  0.00  0.92  0.00  0.00  0.00  0.00  0.00
  YS02164001YS02001641    1.00   0.01  0.07  0.00  0.92  0.00  0.00  0.00  0.06  0.00
  
  
  *************************
  Conduit Surcharge Summary
  *************************
  
  ----------------------------------------------------------------------------
                                                           Hours        Hours 
                         --------- Hours Full --------   Above Full   Capacity
  Conduit                Both Ends  Upstream  Dnstream   Normal Flow   Limited
  ----------------------------------------------------------------------------
  WS02003072WS02003073        0.01      0.01      0.01      1.50         0.01
  WS02004404WS02004405        0.01      0.01      0.01      1.77         0.01
  WS02004405WS02004406        0.01      0.01      0.01      0.81         0.01
  WS02006109WS02006110        0.76      0.76      1.38      0.86         0.01
  WS02006110WS02006113        0.01      0.01      1.36      0.01         0.01
  WS02006111WS02006112        0.01      0.01      1.43      0.01         0.01
  WS02006112WS02006115        0.01      0.01      0.87      0.01         0.01
  WS02006228WS02006109        1.33      1.38      1.33      1.58         1.33
  WS02006229WS02006228        1.33      1.34      1.33      1.50         1.32
  WS02006230WS02006229        1.43      1.47      1.43      2.24         1.43
  WS02006231WS02006230        0.76      0.76      0.92      1.96         0.01
  WS02006232WS02006231        0.88      0.88      1.39      0.93         0.01
  WS02006234WS02006232        1.28      1.28      1.39      0.92         0.90
  WS02006235WS02006234        1.05      1.06      1.30      1.87         0.02
  WS02006238WS02006235        1.32      1.33      1.39      0.01         0.01
  WS02006239WS02006238        1.33      1.35      1.35      1.35         1.19
  WS02006240WS02006239        1.31      1.33      1.32      1.35         1.14
  WS02006242WS02006240        1.33      1.33      1.34      1.43         0.01
  WS02006243WS02006242        1.32      1.32      1.34      0.01         0.04
  WS02006245WS02006243        1.32      1.32      1.32      0.57         0.55
  WS02006247WS02006245        1.32      1.32      1.32      1.66         1.30
  WS02006248WS02006247        1.31      1.31      1.32      0.01         0.05
  WS02006249WS02006248        1.31      1.31      1.31      1.64         0.01
  WS02006251WS02006249        1.31      1.31      1.31      1.41         1.26
  WS02006252WS02006251        1.48      1.48      1.48      1.48         0.01
  WS02006256WS02006235        1.87      1.90      3.58      1.21         0.01
  YS02001580YS02001583        0.39      0.39      0.42      0.01         0.01
  YS02001583YS02001586        0.40      0.40      0.49      0.01         0.01
  YS02001586YS02001590        0.50      0.50      0.55      0.01         0.01
  YS02001590YS02001593        0.56      0.56      0.57      0.57         0.01
  YS02001593YS02001596        0.57      0.57      0.65      0.01         0.01
  YS02001596YS02001600        0.70      0.70      0.79      0.01         0.01
  YS02001600YS02001601        0.84      0.84      1.11      0.01         0.01
  YS02001601YS02001602        1.01      1.01      1.15      0.79         0.01
  YS02001602YS02001605        0.96      0.96      1.01      2.01         0.01
  YS02001605YS02001607        0.91      0.96      0.91      1.07         0.91
  YS02001607YS02001610        0.53      0.53      0.55      0.01         0.01
  YS02001610YS02001613        0.52      0.52      0.55      0.01         0.01
  YS02001613YS02001616        0.49      0.49      0.52      0.01         0.01
  YS02001616YS02001619        0.48      0.48      0.49      0.01         0.01
  YS02001619YS02001622        0.48      0.48      0.48      0.56         0.45
  YS02001622YS02001625        0.48      0.48      0.63      0.01         0.01
  YS02001625YS02001629        0.44      0.44      0.63      0.01         0.01
  YS02001629YS02163301        0.63      0.63      0.63      0.10         0.13
  YS02001633YS02163601        0.65      0.65      0.68      0.27         0.26
  YS02001641YS02001644        0.56      0.59      0.56      1.20         0.55
  YS02001644YS02001647        0.39      0.39      0.56      0.01         0.01
  YS02001647YS02001649        0.39      0.39      0.48      0.01         0.01
  YS02001649YS02001757        0.48      0.48      0.54      0.06         0.05
  YS02001652YS02001649        0.35      0.35      0.48      0.01         0.01
  YS02001655YS02001652        0.24      0.24      0.34      0.01         0.01
  YS02001658YS02001655        0.12      0.12      0.24      0.01         0.01
  YS02001661YS02001658        0.01      0.01      0.12      0.01         0.01
  YS02001664YS02001661        0.01      0.01      0.01      0.01         0.01
  YS02001745YS02001748        0.01      0.01      0.06      0.01         0.01
  YS02001748YS02001751        0.10      0.10      0.16      0.01         0.01
  YS02001751YS02001754        0.17      0.17      0.27      0.01         0.01
  YS02001754YS02001757        0.30      0.30      0.54      0.01         0.01
  YS02001757CaochengTiaoxuchi        0.54      0.54      1.11      0.21         0.21
  YS02001759YS02001757        0.45      0.45      0.54      0.01         0.01
  YS02001762YS02001759        0.43      0.43      0.45      0.01         0.02
  YS02001765YS02001762        0.40      0.40      0.43      0.01         0.01
  YS02001767YS02001765        0.37      0.37      0.40      0.01         0.02
  YS02001770YS02001767        0.37      0.37      0.37      0.27         0.24
  YS02001774YS02001770        0.35      0.35      0.41      0.01         0.01
  YS02001779YS02001774        0.27      0.27      0.41      0.01         0.01
  YS02001783YS02001784        0.32      0.34      0.32      0.47         0.32
  YS02001784YS02001785        0.22      0.32      0.22      0.67         0.22
  YS02001786YS02001788        0.01      0.22      0.01      0.57         0.01
  YS02001790YS02001791        0.01      0.01      0.01      0.30         0.01
  YS02001793JiankangQianchi        0.01      0.01      7.69      0.01         0.01
  YS02001882YS02001884        0.29      0.29      0.30      0.01         0.01
  YS02001884YS02001887        0.32      0.32      0.33      0.01         0.01
  YS02001887YS02001890        0.34      0.34      0.35      0.01         0.01
  YS02001890YS02001895        0.28      0.28      0.37      0.01         0.01
  YS02001895YS02001898        0.27      0.27      0.28      0.01         0.01
  YS02001898YS02001901        0.28      0.28      0.32      0.01         0.01
  YS02001901YS02001904        0.31      0.31      0.32      0.01         0.01
  YS02001904YS02001907        0.31      0.31      0.55      0.01         0.01
  YS02001907YS02006553        0.67      0.67      0.73      0.01         0.01
  YS02001910YS02001907        0.36      0.36      0.54      0.01         0.01
  YS02001915YS02001910        0.29      0.29      0.36      0.01         0.01
  YS02001918YS02001915        0.21      0.21      0.29      0.01         0.01
  YS02001920YS02001918        0.21      0.21      0.23      0.01         0.01
  YS02001923YS02001920        0.17      0.17      0.23      0.01         0.01
  YS02001926YS02001923        0.01      0.01      0.01      0.01         0.01
  YS02001929YS02001926        0.01      0.01      0.01      0.01         0.01
  YS02006553YS02006556        0.45      0.45      0.55      0.01         0.01
  YS02006556YS02006558        0.50      0.50      0.56      0.01         0.01
  YS02006558YS02006561        0.24      0.44      0.24      0.63         0.24
  YS02006561YS02001783        0.18      0.18      0.34      0.01         0.01
  YS02163301YS02001633        0.63      0.63      0.67      0.01         0.01
  YS02163601YS02164001        0.60      0.60      0.68      0.07         0.01
  YS02164001YS02001641        0.59      0.60      0.59      0.55         0.46
  
  
  ***************
  Pumping Summary
  ***************
  
  ---------------------------------------------------------------------------------------------------------
                                                  Min       Avg       Max     Total     Power    % Time Off
                        Percent   Number of      Flow      Flow      Flow    Volume     Usage    Pump Curve
  Pump                 Utilized   Start-Ups       LPS       LPS       LPS  10^6 ltr     Kw-hr    Low   High
  ---------------------------------------------------------------------------------------------------------
  CC-R1                   16.90          11      0.00    683.00    683.00     3.324     60.93    0.0   27.3
  CC-R2                   15.61          11      0.00    683.00    683.00     3.070     56.24    0.0   29.6
  CC-S1                   21.21          11      0.00    200.00    200.00     1.222      7.21    0.0    0.0
  CC-S2                   18.47          11      0.00    200.00    200.00     1.064      6.26    0.0    0.0
  JK-R1                    5.73          10      0.00   1000.00   1000.00     1.651     19.86    0.0    0.0
  JK-R2                    0.16           1      0.00   1000.00   1000.00     0.047      0.36    0.0    0.0
  JK-S                    15.06          15      0.00    300.00    300.00     1.301     17.63    0.0    0.0
  XR-1                    97.91           2      0.00     95.00     95.00     2.679      9.60    0.0    0.0
  XR-2                    93.94           2      0.00     95.00     95.00     2.570      8.76    0.0    0.0
  XR-3                     0.00           1      0.00     95.00     95.00     0.000      0.00    0.0    0.0
  XR-4                     0.00           1      0.00     95.00     95.00     0.000      0.00    0.0    0.0
  

  Analysis begun on:  Wed Nov  5 16:31:40 2025
  Analysis ended on:  Wed Nov  5 16:31:43 2025
  Total elapsed time: 00:00:03