
  EPA STORM WATER MANAGEMENT MODEL - VERSION 5.2 (Build 5.2.4)
  PYSWMM TOOLKIT API - VERSION v1.0 (2023-11-27)
  ------------------------------------------------------------

  WARNING 04: minimum elevation drop used for Conduit WS02004404WS02004405
  WARNING 03: negative offset ignored for Link YS02001904YS02001907
  
  ****************
  Analysis Options
  ****************
  Flow Units ............... LPS
  Process Models:
    Rainfall/Runoff ........ YES
    RDII ................... NO
    Snowmelt ............... NO
    Groundwater ............ NO
    Flow Routing ........... YES
    Ponding Allowed ........ NO
    Water Quality .......... NO
  Infiltration Method ...... HORTON
  Flow Routing Method ...... DYNWAVE
  Surcharge Method ......... EXTRAN
  Starting Date ............ 08/28/2015 08:00:00
  Ending Date .............. 08/28/2015 16:00:00
  Antecedent Dry Days ...... 8.0
  Report Time Step ......... 00:01:00
  Wet Time Step ............ 00:01:00
  Dry Time Step ............ 00:01:00
  Routing Time Step ........ 30.00 sec
  Variable Time Step ....... YES
  Maximum Trials ........... 8
  Number of Threads ........ 4
  Head Tolerance ........... 0.001500 m
  
  
  **************************        Volume         Depth
  Runoff Quantity Continuity     hectare-m            mm
  **************************     ---------       -------
  Initial LID Storage ......         0.049         1.488
  Total Precipitation ......         1.401        42.234
  Evaporation Loss .........         0.000         0.000
  Infiltration Loss ........         0.071         2.147
  Surface Runoff ...........         1.009        30.421
  Final Storage ............         0.370        11.164
  Continuity Error (%) .....        -0.025
  
  
  **************************        Volume        Volume
  Flow Routing Continuity        hectare-m      10^6 ltr
  **************************     ---------     ---------
  Dry Weather Inflow .......         0.602         6.020
  Wet Weather Inflow .......         1.009        10.090
  Groundwater Inflow .......         0.000         0.000
  RDII Inflow ..............         0.000         0.000
  External Inflow ..........         0.105         1.045
  External Outflow .........         1.560        15.601
  Flooding Loss ............         0.129         1.289
  Evaporation Loss .........         0.000         0.000
  Exfiltration Loss ........         0.000         0.000
  Initial Stored Volume ....         0.303         3.031
  Final Stored Volume ......         0.335         3.352
  Continuity Error (%) .....        -0.276
  
  
  *************************
  Highest Continuity Errors
  *************************
  Node YS02001583 (-10.28%)
  Node YS02001884 (5.10%)
  Node YS02001774 (1.86%)
  Node WS02006256 (-1.16%)
  
  
  ***************************
  Time-Step Critical Elements
  ***************************
  Link WS02004404WS02004405 (39.07%)
  Link WS02006238WS02006235 (22.71%)
  Link WS02006252WS02006251 (7.61%)
  Link YS02001791YS02001793 (7.51%)
  Link WS02006235WS02006234 (5.72%)
  
  
  ********************************
  Highest Flow Instability Indexes
  ********************************
  Link WS02006113WS02006111 (27)
  Link WS02006111WS02006112 (15)
  Link WS02006252WS02006251 (15)
  Link WS02006256WS02006235 (14)
  Link WS02006238WS02006235 (13)
  
  
  *********************************
  Most Frequent Nonconverging Nodes
  *********************************
  Node CC-1 (15.68%)
  Node CC-2 (15.68%)
  Node JK-1 (15.68%)
  Node JK-2 (15.68%)
  Node WSC (15.68%)
  
  
  *************************
  Routing Time Step Summary
  *************************
  Minimum Time Step           :     0.01 sec
  Average Time Step           :     3.68 sec
  Maximum Time Step           :     7.04 sec
  % of Time in Steady State   :     0.00
  Average Iterations per Step :     3.27
  % of Steps Not Converging   :    15.68
  Time Step Frequencies       :
     30.000 - 13.228 sec      :     0.00 %
     13.228 -  5.833 sec      :    31.05 %
      5.833 -  2.572 sec      :    33.44 %
      2.572 -  1.134 sec      :    21.05 %
      1.134 -  0.500 sec      :    14.45 %
  
  
  ***************************
  Subcatchment Runoff Summary
  ***************************
  
  ------------------------------------------------------------------------------------------------------------------------------
                            Total      Total      Total      Total     Imperv       Perv      Total       Total     Peak  Runoff
                           Precip      Runon       Evap      Infil     Runoff     Runoff     Runoff      Runoff   Runoff   Coeff
  Subcatchment                 mm         mm         mm         mm         mm         mm         mm    10^6 ltr      LPS
  ------------------------------------------------------------------------------------------------------------------------------
  sub60                     42.23       0.00       0.00       1.29      27.76       2.62      30.38        0.40   290.86   0.719
  sub61                     42.23       0.00       0.00       1.98      27.73       3.89      31.63        0.58   420.93   0.749
  sub62                     42.23       0.00       0.00       0.88      29.56       1.78      31.34        0.86   575.88   0.742
  sub63                     42.23       0.00       0.00       3.62      23.75       6.41      30.16        0.68   462.46   0.714
  sub64                     42.23       0.00       0.00       1.74      27.04       3.20      30.24        0.73   457.75   0.716
  sub65                     42.23       0.00       0.00       1.59      29.18       2.92      32.10        0.88   533.38   0.760
  sub66                     42.23       0.00       0.00       4.20      22.95       5.51      28.46        1.33   661.66   0.674
  sub67                     42.23       0.00       0.00       0.88      30.31       1.85      32.16        0.60   455.96   0.761
  sub68                     42.23       0.00       0.00       1.52      26.77       2.99      29.75        0.82   573.78   0.704
  sub69                     42.23       0.00       0.00       1.36      28.37       3.66      32.04        1.19   695.76   0.759
  sub70                     42.23       0.00       0.00       4.55      22.71       7.21      29.92        0.86   383.20   0.708
  sub71                     42.23       0.00       0.00       0.81      26.85       1.61      28.45        0.74   467.54   0.674
  sub72                     42.23       0.00       0.00       0.77      28.99       1.49      30.48        0.42   237.46   0.722
  

  ***********************
  LID Performance Summary
  ***********************

  --------------------------------------------------------------------------------------------------------------------
                                         Total      Evap     Infil   Surface    Drain    Initial     Final  Continuity
                                        Inflow      Loss      Loss   Outflow   Outflow   Storage   Storage       Error
  Subcatchment      LID Control             mm        mm        mm        mm        mm        mm        mm           %
  --------------------------------------------------------------------------------------------------------------------
  sub60             GreenRoof            42.23      0.00      0.00      0.00      0.00      7.05     49.30       -0.03
  sub61             GreenRoof            42.23      0.00      0.00      0.00      0.00      7.05     49.30       -0.03
  sub62             GreenRoof            42.23      0.00      0.00      0.00      0.00      7.05     49.30       -0.03
  sub63             GreenRoof            42.23      0.00      0.00      0.00      0.00      7.05     49.30       -0.03
  sub64             GreenRoof            42.23      0.00      0.00      0.00      0.00      7.05     49.30       -0.03
  sub65             GreenRoof            42.23      0.00      0.00      0.00      0.00      7.05     49.30       -0.03
  sub66             GreenRoof            42.23      0.00      0.00      0.00      0.00      7.05     49.30       -0.03
  sub67             GreenRoof            42.23      0.00      0.00      0.00      0.00      7.05     49.30       -0.03
  sub68             GreenRoof            42.23      0.00      0.00      0.00      0.00      7.05     49.30       -0.03
  sub69             GreenRoof            42.23      0.00      0.00      0.00      0.00      7.05     49.30       -0.03
  sub70             GreenRoof            42.23      0.00      0.00      0.00      0.00      7.05     49.30       -0.03
  sub71             GreenRoof            42.23      0.00      0.00      0.00      0.00      7.05     49.30       -0.03
  sub72             GreenRoof            42.23      0.00      0.00      0.00      0.00      7.05     49.30       -0.03
  
  ******************
  Node Depth Summary
  ******************
  
  ---------------------------------------------------------------------------------
                                 Average  Maximum  Maximum  Time of Max    Reported
                                   Depth    Depth      HGL   Occurrence   Max Depth
  Node                 Type       Meters   Meters   Meters  days hr:min      Meters
  ---------------------------------------------------------------------------------
  WS02001211           JUNCTION     0.59     0.64     5.48     0  02:48        0.64
  WS02001212           JUNCTION     0.33     0.38     5.45     0  02:47        0.38
  WS02001213           JUNCTION     0.52     0.65     5.41     0  02:46        0.65
  WS02003059           JUNCTION     0.58     0.72     5.40     0  02:46        0.72
  WS02003060           JUNCTION     0.29     0.45     5.38     0  02:45        0.45
  WS02003066           JUNCTION     0.15     0.30     5.85     0  02:45        0.30
  WS02003067           JUNCTION     0.41     0.70     6.02     0  02:44        0.70
  WS02003069           JUNCTION     0.32     0.51     5.10     0  02:46        0.51
  WS02003072           JUNCTION     0.38     0.57     4.95     0  02:46        0.57
  WS02003073           JUNCTION     0.22     0.35     4.41     0  02:47        0.35
  WS02004138           JUNCTION     0.13     0.14     7.39     0  00:29        0.14
  WS02004139           JUNCTION     0.53     0.58     5.49     0  02:48        0.58
  WS02004401           JUNCTION     0.49     0.85     6.85     0  02:43        0.85
  WS02004402           JUNCTION     0.52     0.88     6.84     0  02:43        0.88
  WS02004403           JUNCTION     0.55     0.89     6.82     0  02:43        0.89
  WS02004404           JUNCTION     0.62     0.96     6.81     0  02:43        0.96
  WS02004405           JUNCTION     0.62     0.96     6.81     0  02:43        0.96
  WS02004406           JUNCTION     0.63     0.96     6.79     0  02:43        0.96
  WS02004407           JUNCTION     0.12     0.30     6.61     0  02:43        0.30
  WS02004409           JUNCTION     0.28     0.67     6.44     0  02:44        0.67
  WS02004410           JUNCTION     0.31     0.68     6.40     0  02:44        0.68
  WS02004411           JUNCTION     0.33     0.69     6.37     0  02:44        0.69
  WS02004412           JUNCTION     0.36     0.70     6.34     0  02:44        0.70
  WS02004413           JUNCTION     0.51     0.86     6.33     0  02:45        0.86
  WS02006109           JUNCTION     0.54     1.15     7.77     0  02:06        1.11
  WS02006110           JUNCTION     0.55     1.21     7.80     0  02:06        1.21
  WS02006111           JUNCTION     0.13     0.29     6.99     0  03:04        0.29
  WS02006112           JUNCTION     0.63     1.09     6.97     0  02:17        1.05
  WS02006113           JUNCTION     0.19     0.46     7.35     0  03:04        0.46
  WS02006115           JUNCTION     0.37     0.75     6.89     0  02:42        0.75
  WS02006116           JUNCTION     0.46     0.83     6.87     0  02:42        0.83
  WS02006228           JUNCTION     0.52     1.18     7.83     0  02:22        1.07
  WS02006229           JUNCTION     0.49     1.22     7.92     0  02:22        1.07
  WS02006230           JUNCTION     0.48     1.43     8.18     0  02:22        1.15
  WS02006231           JUNCTION     0.30     1.22     8.34     0  02:10        0.90
  WS02006232           JUNCTION     0.42     1.48     8.51     0  02:16        1.11
  WS02006234           JUNCTION     0.34     1.96     9.12     0  02:16        1.96
  WS02006235           JUNCTION     0.38     2.00     9.16     0  02:16        2.00
  WS02006238           JUNCTION     0.40     2.15     9.29     0  02:16        2.15
  WS02006239           JUNCTION     0.36     2.03     9.24     0  02:16        2.03
  WS02006240           JUNCTION     0.34     2.10     9.39     0  02:16        2.10
  WS02006242           JUNCTION     0.39     1.55     8.82     0  02:16        1.55
  WS02006243           JUNCTION     0.32     1.48     8.90     0  02:16        1.48
  WS02006245           JUNCTION     0.33     1.56     9.04     0  02:16        1.56
  WS02006247           JUNCTION     0.34     1.46     8.96     0  02:16        1.46
  WS02006248           JUNCTION     0.32     1.10     8.69     0  02:05        1.10
  WS02006249           JUNCTION     0.34     1.09     8.69     0  02:05        1.09
  WS02006251           JUNCTION     0.34     1.40     9.07     0  02:06        1.40
  WS02006252           JUNCTION     0.22     1.50     9.74     0  00:00        0.96
  WS02006256           JUNCTION     0.90     2.35     9.28     0  00:00        2.35
  WSF200               JUNCTION     0.12     0.31     5.54     0  02:44        0.31
  YS02001580           JUNCTION     0.09     1.05     9.59     0  01:59        1.05
  YS02001583           JUNCTION     0.12     1.14     9.64     0  01:59        0.96
  YS02001586           JUNCTION     0.20     1.13     9.30     0  01:59        1.13
  YS02001590           JUNCTION     0.30     1.40     9.26     0  01:58        1.37
  YS02001593           JUNCTION     0.24     1.38     9.24     0  01:59        1.28
  YS02001596           JUNCTION     0.33     1.72     9.14     0  01:59        1.65
  YS02001600           JUNCTION     0.41     1.87     9.00     0  01:58        1.87
  YS02001601           JUNCTION     0.60     2.06     8.90     0  01:58        2.06
  YS02001602           JUNCTION     0.50     1.87     8.77     0  01:59        1.87
  YS02001605           JUNCTION     0.46     1.78     8.68     0  01:59        1.77
  YS02001607           JUNCTION     0.44     1.68     8.53     0  01:59        1.65
  YS02001610           JUNCTION     0.48     1.68     8.48     0  01:59        1.68
  YS02001613           JUNCTION     0.44     1.69     8.53     0  01:59        1.64
  YS02001616           JUNCTION     0.37     1.61     8.52     0  01:59        1.59
  YS02001619           JUNCTION     0.35     1.61     8.54     0  01:59        1.57
  YS02001622           JUNCTION     0.34     1.62     8.52     0  01:59        1.55
  YS02001625           JUNCTION     0.59     1.78     8.38     0  01:59        1.78
  YS02001629           JUNCTION     0.47     1.85     8.40     0  01:59        1.85
  YS02001633           JUNCTION     0.54     2.08     8.53     0  02:01        2.05
  YS02001641           JUNCTION     0.51     2.06     8.50     0  02:05        2.06
  YS02001644           JUNCTION     0.50     1.92     8.35     0  02:01        1.92
  YS02001647           JUNCTION     0.28     1.75     8.36     0  02:05        1.75
  YS02001649           JUNCTION     0.32     1.83     8.22     0  02:05        1.83
  YS02001652           JUNCTION     0.21     1.62     8.22     0  02:07        1.57
  YS02001655           JUNCTION     0.15     1.57     8.42     0  02:07        1.23
  YS02001658           JUNCTION     0.10     1.33     8.47     0  02:04        0.92
  YS02001661           JUNCTION     0.13     0.72     8.12     0  02:04        0.69
  YS02001664           JUNCTION     0.06     0.26     8.18     0  02:02        0.26
  YS02001745           JUNCTION     0.05     0.46     7.98     0  02:03        0.29
  YS02001748           JUNCTION     0.09     0.88     7.96     0  02:04        0.85
  YS02001751           JUNCTION     0.12     1.32     8.20     0  02:03        1.15
  YS02001754           JUNCTION     0.18     1.43     8.03     0  02:02        1.41
  YS02001757           JUNCTION     0.33     1.78     8.04     0  02:05        1.77
  YS02001759           JUNCTION     0.27     1.84     8.20     0  02:05        1.84
  YS02001762           JUNCTION     0.26     1.97     8.37     0  02:05        1.97
  YS02001765           JUNCTION     0.25     2.06     8.51     0  02:05        2.06
  YS02001767           JUNCTION     0.24     2.03     8.52     0  02:02        2.03
  YS02001770           JUNCTION     0.25     1.95     8.44     0  02:02        1.95
  YS02001774           JUNCTION     0.32     2.05     8.47     0  02:02        2.05
  YS02001779           JUNCTION     0.15     1.68     8.37     0  02:02        1.68
  YS02001783           JUNCTION     0.25     1.31     7.45     0  02:02        1.22
  YS02001784           JUNCTION     0.26     1.16     7.22     0  02:02        1.11
  YS02001786           JUNCTION     0.22     0.89     6.92     0  02:02        0.86
  YS02001788           JUNCTION     0.16     0.62     6.60     0  02:02        0.61
  YS02001790           JUNCTION     0.19     0.72     6.36     0  02:03        0.70
  YS02001791           JUNCTION     0.12     0.43     5.90     0  02:04        0.43
  YS02001793           JUNCTION     0.06     0.29     5.12     0  02:05        0.28
  YS02001882           JUNCTION     0.30     1.83     8.55     0  02:00        1.66
  YS02001884           JUNCTION     0.39     1.93     8.55     0  02:00        1.76
  YS02001887           JUNCTION     0.47     2.00     8.54     0  02:00        1.83
  YS02001890           JUNCTION     0.50     1.81     8.32     0  02:00        1.81
  YS02001895           JUNCTION     0.28     1.75     8.50     0  02:00        1.59
  YS02001898           JUNCTION     0.28     1.77     8.51     0  02:00        1.61
  YS02001901           JUNCTION     0.39     1.87     8.48     0  02:00        1.74
  YS02001904           JUNCTION     0.37     1.84     8.47     0  02:00        1.70
  YS02001907           JUNCTION     0.68     1.96     8.25     0  02:00        1.96
  YS02001910           JUNCTION     0.48     2.10     8.61     0  02:02        2.10
  YS02001915           JUNCTION     0.30     2.00     8.72     0  02:00        2.00
  YS02001918           JUNCTION     0.15     1.81     8.88     0  02:02        1.81
  YS02001920           JUNCTION     0.23     2.11     9.11     0  02:02        1.86
  YS02001923           JUNCTION     0.11     2.03     9.29     0  02:02        1.62
  YS02001926           JUNCTION     0.15     1.90     9.35     0  02:02        1.45
  YS02001929           JUNCTION     0.08     1.78     9.47     0  02:02        1.23
  YS02006553           JUNCTION     0.68     1.97     8.25     0  02:02        1.97
  YS02006556           JUNCTION     0.66     1.93     8.24     0  02:02        1.92
  YS02006558           JUNCTION     0.70     1.97     8.24     0  02:02        1.96
  YS02006561           JUNCTION     0.15     1.10     7.76     0  02:02        0.88
  YS02163301           JUNCTION     0.49     1.95     8.47     0  02:05        1.95
  YS02163601           JUNCTION     0.57     2.08     8.48     0  02:01        2.08
  YS02164001           JUNCTION     0.50     2.08     8.54     0  02:05        2.08
  CC-1                 OUTFALL      0.00     0.00     0.00     0  00:00        0.00
  CC-2                 OUTFALL      0.00     0.00     0.00     0  00:00        0.00
  JK-1                 OUTFALL      0.00     0.00     0.00     0  00:00        0.00
  JK-2                 OUTFALL      0.00     0.00     0.00     0  00:00        0.00
  WSC                  OUTFALL      0.22     0.35     1.02     0  02:47        0.35
  CC-storage           STORAGE      0.75     1.44     6.94     0  02:19        1.44
  JK-storage           STORAGE      3.01     4.22     5.02     0  02:05        4.20
  XR-storage           STORAGE      7.84     9.26     7.26     0  08:00        9.26
  
  
  *******************
  Node Inflow Summary
  *******************
  
  -------------------------------------------------------------------------------------------------
                                  Maximum  Maximum                  Lateral       Total        Flow
                                  Lateral    Total  Time of Max      Inflow      Inflow     Balance
                                   Inflow   Inflow   Occurrence      Volume      Volume       Error
  Node                 Type           LPS      LPS  days hr:min    10^6 ltr    10^6 ltr     Percent
  -------------------------------------------------------------------------------------------------
  WS02001211           JUNCTION      7.35   200.35     0  02:50       0.212        5.44       0.611
  WS02001212           JUNCTION      0.00   202.41     0  02:50           0        5.41       0.290
  WS02001213           JUNCTION      0.00   204.27     0  02:51           0        5.39       0.331
  WS02003059           JUNCTION      0.00   208.69     0  03:19           0        5.38       0.592
  WS02003060           JUNCTION     16.53   748.67     0  02:45       0.476        8.46       0.167
  WS02003066           JUNCTION      0.00   535.95     0  02:45           0        2.64       0.051
  WS02003067           JUNCTION      0.00   535.96     0  02:45           0        2.64       0.157
  WS02003069           JUNCTION      0.32   749.00     0  02:46     0.00922        8.45       0.177
  WS02003072           JUNCTION      0.00   748.86     0  02:46           0        8.44       0.241
  WS02003073           JUNCTION      1.82   750.54     0  02:47      0.0524        8.47       0.248
  WS02004138           JUNCTION      0.00   380.00     0  00:00           0        5.25       0.053
  WS02004139           JUNCTION      0.32   191.16     0  00:29     0.00924        5.26       0.509
  WS02004401           JUNCTION      0.00   537.11     0  02:42           0        2.75       0.386
  WS02004402           JUNCTION      0.00   536.90     0  02:43           0        2.74       0.391
  WS02004403           JUNCTION      0.00   536.79     0  02:43           0        2.73       0.381
  WS02004404           JUNCTION      0.16   536.88     0  02:43     0.00467        2.72       0.338
  WS02004405           JUNCTION      0.04   536.93     0  02:43      0.0011        2.71       0.452
  WS02004406           JUNCTION      0.00   536.98     0  02:43           0         2.7       0.790
  WS02004407           JUNCTION      0.00   536.75     0  02:43           0        2.68       0.052
  WS02004409           JUNCTION      0.00   536.61     0  02:43           0        2.68       0.107
  WS02004410           JUNCTION      0.00   536.36     0  02:44           0        2.67       0.165
  WS02004411           JUNCTION      0.00   536.26     0  02:44           0        2.67       0.208
  WS02004412           JUNCTION      0.00   536.15     0  02:44           0        2.66       0.279
  WS02004413           JUNCTION      0.00   536.04     0  02:45           0        2.66       0.496
  WS02006109           JUNCTION      1.23   559.71     0  02:22      0.0354         2.8       0.356
  WS02006110           JUNCTION      0.00   558.88     0  02:22           0        2.79       0.260
  WS02006111           JUNCTION      0.00   561.74     0  03:03           0        2.78       0.042
  WS02006112           JUNCTION      0.00   544.44     0  03:04           0        2.78       0.662
  WS02006113           JUNCTION      0.00   567.88     0  02:23           0        2.78       0.074
  WS02006115           JUNCTION      0.00   552.84     0  02:24           0        2.76       0.250
  WS02006116           JUNCTION      0.00   537.86     0  02:18           0        2.75       0.112
  WS02006228           JUNCTION      0.00   557.38     0  02:22           0        2.76       0.167
  WS02006229           JUNCTION      0.00   557.50     0  02:22           0        2.77       0.189
  WS02006230           JUNCTION     10.28   594.10     0  02:10       0.296        2.78       0.192
  WS02006231           JUNCTION      0.00   569.95     0  02:59           0        2.48      -0.114
  WS02006232           JUNCTION      0.00   568.90     0  02:59           0        2.49       0.539
  WS02006234           JUNCTION      0.00   564.90     0  02:59           0        2.48      -0.384
  WS02006235           JUNCTION      0.00   561.64     0  02:16           0        2.57       0.403
  WS02006238           JUNCTION      0.00   423.71     0  02:20           0        1.89      -0.169
  WS02006239           JUNCTION      0.00   422.38     0  02:20           0        1.85      -0.039
  WS02006240           JUNCTION      0.00   421.29     0  03:00           0         1.8      -0.066
  WS02006242           JUNCTION      0.00   422.63     0  03:00           0        1.77      -0.164
  WS02006243           JUNCTION      0.00   422.91     0  03:00           0        1.76      -0.180
  WS02006245           JUNCTION      0.00   423.84     0  03:00           0        1.76       0.637
  WS02006247           JUNCTION      0.00   424.11     0  03:00           0        1.76      -0.101
  WS02006248           JUNCTION      0.00   426.10     0  03:00           0        1.76      -0.276
  WS02006249           JUNCTION      0.00   458.97     0  00:00           0        1.91       0.922
  WS02006251           JUNCTION      0.08   406.37     0  02:06     0.00222        1.91       0.040
  WS02006252           JUNCTION      0.00   400.00     0  00:00           0         1.9      -0.493
  WS02006256           JUNCTION      0.00   300.00     0  00:00           0           1      -1.146
  WSF200               JUNCTION      0.00   535.95     0  02:45           0        2.64       0.021
  YS02001580           JUNCTION      0.00   153.32     0  01:59           0     0.00464       3.450
  YS02001583           JUNCTION      0.00   256.55     0  01:59           0      0.0151      -9.318
  YS02001586           JUNCTION    383.20   383.34     0  02:04       0.864       0.876       0.184
  YS02001590           JUNCTION      0.00   318.06     0  02:05           0       0.834      -0.051
  YS02001593           JUNCTION      0.00   318.20     0  02:05           0       0.835       0.010
  YS02001596           JUNCTION      0.00   317.95     0  02:03           0       0.835      -0.011
  YS02001600           JUNCTION      0.00   317.95     0  02:02           0       0.835       0.004
  YS02001601           JUNCTION    695.76  1013.32     0  02:03        1.19        2.02       0.023
  YS02001602           JUNCTION      0.00   562.39     0  01:59           0        1.58       0.015
  YS02001605           JUNCTION      0.00   562.46     0  01:59           0        1.53       0.011
  YS02001607           JUNCTION      0.00   562.33     0  01:59           0        1.53       0.117
  YS02001610           JUNCTION      0.00   551.66     0  01:59           0        1.53       0.136
  YS02001613           JUNCTION      0.00   559.61     0  01:59           0        1.45       0.101
  YS02001616           JUNCTION      0.00   579.03     0  01:59           0        1.45       0.021
  YS02001619           JUNCTION    661.66  1002.27     0  01:59        1.33        2.77      -0.005
  YS02001622           JUNCTION      0.00  1011.40     0  01:59           0        2.77      -0.011
  YS02001625           JUNCTION      0.00   960.79     0  01:59           0        2.77       0.310
  YS02001629           JUNCTION      0.00   961.04     0  01:59           0        2.62       0.015
  YS02001633           JUNCTION    533.58  1428.97     0  02:01       0.889        3.51       0.092
  YS02001641           JUNCTION      0.00  1429.32     0  02:01           0        3.51       0.077
  YS02001644           JUNCTION    457.79  1867.45     0  02:01       0.727        4.23       0.075
  YS02001647           JUNCTION      0.00  1867.51     0  02:01           0        4.22       0.012
  YS02001649           JUNCTION      0.00  2168.52     0  02:01           0        4.91       0.013
  YS02001652           JUNCTION      0.00   526.33     0  02:05           0        0.69      -0.165
  YS02001655           JUNCTION      0.15   565.37     0  02:07     0.00443       0.689      -0.118
  YS02001658           JUNCTION      0.00   653.52     0  02:06           0       0.685      -0.073
  YS02001661           JUNCTION      0.00   462.07     0  02:02           0       0.685       0.060
  YS02001664           JUNCTION    462.46   462.46     0  02:02       0.685       0.685      -0.016
  YS02001745           JUNCTION    290.87   290.87     0  02:02       0.399       0.399       0.338
  YS02001748           JUNCTION      0.04   453.81     0  02:03      0.0013         0.4      -0.384
  YS02001751           JUNCTION      0.01   424.47     0  02:04    0.000317       0.406       0.108
  YS02001754           JUNCTION      0.26   343.77     0  02:04     0.00749        0.42      -0.293
  YS02001757           JUNCTION      0.00  2961.78     0  02:04           0        6.78       0.044
  YS02001759           JUNCTION    420.97  1053.82     0  02:02       0.581        1.46      -0.010
  YS02001762           JUNCTION      0.00   632.92     0  02:02           0       0.876      -0.021
  YS02001765           JUNCTION      0.00   625.39     0  02:02           0       0.876       0.017
  YS02001767           JUNCTION      0.54   618.20     0  02:02      0.0154       0.876       0.000
  YS02001770           JUNCTION    576.04   598.81     0  02:02       0.863       0.905      -0.072
  YS02001774           JUNCTION      0.00   453.89     0  02:02           0      0.0635       1.892
  YS02001779           JUNCTION      0.01   474.64     0  02:02    0.000144      0.0205      -4.350
  YS02001783           JUNCTION      0.00  1145.71     0  02:03           0        2.52       0.010
  YS02001784           JUNCTION      1.06  1146.97     0  02:03      0.0305        2.55       0.019
  YS02001786           JUNCTION      0.06  1147.85     0  02:03     0.00162        2.55       0.027
  YS02001788           JUNCTION      0.07  1149.49     0  02:03     0.00204        2.55       0.012
  YS02001790           JUNCTION      0.15  1155.33     0  02:04     0.00446        2.56       0.027
  YS02001791           JUNCTION      0.00  1271.58     0  02:03           0        2.56      -0.017
  YS02001793           JUNCTION      0.00  1218.35     0  02:04           0        2.56       0.008
  YS02001882           JUNCTION      0.00    92.15     0  02:00           0      0.0124       5.201
  YS02001884           JUNCTION      0.00   126.00     0  02:00           0       0.048       5.372
  YS02001887           JUNCTION    456.41   482.46     0  02:00       0.611       0.644       0.696
  YS02001890           JUNCTION      0.00   485.39     0  02:00           0       0.603       0.848
  YS02001895           JUNCTION      0.00   488.53     0  02:00           0       0.598       0.243
  YS02001898           JUNCTION      0.00   479.90     0  02:01           0       0.596       0.059
  YS02001901           JUNCTION      0.00   494.63     0  02:01           0       0.599       0.531
  YS02001904           JUNCTION      0.00   495.33     0  02:01           0       0.603       0.469
  YS02001907           JUNCTION      0.00  1327.01     0  02:03           0        1.84       0.984
  YS02001910           JUNCTION      0.00   919.27     0  02:03           0        1.25       0.565
  YS02001915           JUNCTION    467.56   919.02     0  02:03       0.745        1.29       0.123
  YS02001918           JUNCTION      0.00   460.63     0  02:01           0       0.573       0.059
  YS02001920           JUNCTION      2.87   455.89     0  02:03      0.0827       0.553       0.159
  YS02001923           JUNCTION      0.04   468.55     0  02:01     0.00109       0.455      -0.202
  YS02001926           JUNCTION      0.05   763.10     0  02:02      0.0015       0.435      -0.103
  YS02001929           JUNCTION    237.46   500.82     0  02:02       0.419       0.422      -0.140
  YS02006553           JUNCTION      0.00   784.91     0  02:10           0        1.72       0.685
  YS02006556           JUNCTION      0.00   785.50     0  02:10           0        1.73       0.460
  YS02006558           JUNCTION    574.66  1176.32     0  02:02       0.844        2.55       0.135
  YS02006561           JUNCTION      0.00  1175.37     0  02:02           0        2.52      -0.002
  YS02163301           JUNCTION      0.00   928.99     0  02:01           0        2.62       0.052
  YS02163601           JUNCTION      0.11  1428.97     0  02:01     0.00317         3.5       0.134
  YS02164001           JUNCTION      0.00  1429.33     0  02:01           0         3.5       0.061
  CC-1                 OUTFALL       0.00   683.00     0  00:00           0        2.95       0.000
  CC-2                 OUTFALL       0.00   683.00     0  00:00           0        2.69       0.000
  JK-1                 OUTFALL       0.00  1000.00     0  00:00           0        1.46       0.000
  JK-2                 OUTFALL       0.00  1000.00     0  00:00           0      0.0484       0.000
  WSC                  OUTFALL       0.00   750.37     0  02:47           0        8.45       0.000
  CC-storage           STORAGE       0.00  2964.04     0  02:04           0           9      -0.288
  JK-storage           STORAGE       0.00  1205.64     0  02:04           0        2.71       0.224
  XR-storage           STORAGE     200.00   200.00     0  00:00        5.76        6.36       0.001
  
  
  **********************
  Node Surcharge Summary
  **********************
  
  Surcharging occurs when water rises above the top of the highest conduit.
  ---------------------------------------------------------------------
                                               Max. Height   Min. Depth
                                   Hours       Above Crown    Below Rim
  Node                 Type      Surcharged         Meters       Meters
  ---------------------------------------------------------------------
  WS02006109           JUNCTION        1.08          0.329        1.491
  WS02006110           JUNCTION        0.45          0.303        1.547
  WS02006112           JUNCTION        0.44          0.087        1.593
  WS02006228           JUNCTION        1.07          0.352        1.848
  WS02006229           JUNCTION        1.08          0.424        2.026
  WS02006230           JUNCTION        0.46          0.350        1.220
  WS02006231           JUNCTION        0.54          0.509        1.021
  WS02006232           JUNCTION        1.11          0.776        0.704
  WS02006234           JUNCTION        0.74          1.240        0.000
  WS02006235           JUNCTION        1.06          1.290        0.000
  WS02006238           JUNCTION        1.09          1.430        0.000
  WS02006239           JUNCTION        1.07          1.290        0.000
  WS02006240           JUNCTION        1.07          1.390        0.000
  WS02006242           JUNCTION        1.09          0.820        0.000
  WS02006243           JUNCTION        1.08          0.770        0.000
  WS02006245           JUNCTION        1.07          0.850        0.000
  WS02006247           JUNCTION        1.07          0.752        0.008
  WS02006248           JUNCTION        1.06          0.380        0.000
  WS02006249           JUNCTION        1.06          0.390        0.000
  WS02006251           JUNCTION        0.59          0.373        0.807
  WS02006252           JUNCTION        1.27          1.100        0.000
  WS02006256           JUNCTION        3.87          2.050        0.000
  YS02001580           JUNCTION        0.27          0.450        0.000
  YS02001583           JUNCTION        0.27          0.500        0.000
  YS02001586           JUNCTION        0.39          0.510        0.000
  YS02001590           JUNCTION        0.44          0.750        0.000
  YS02001593           JUNCTION        0.45          0.756        0.084
  YS02001596           JUNCTION        0.53          0.990        0.080
  YS02001600           JUNCTION        0.63          1.190        0.000
  YS02001601           JUNCTION        0.94          1.440        0.000
  YS02001602           JUNCTION        0.83          1.270        0.000
  YS02001605           JUNCTION        0.78          1.180        0.000
  YS02001607           JUNCTION        0.41          0.680        0.000
  YS02001610           JUNCTION        0.43          0.680        0.000
  YS02001613           JUNCTION        0.40          0.687        0.013
  YS02001616           JUNCTION        0.37          0.610        0.000
  YS02001619           JUNCTION        0.37          0.610        0.000
  YS02001622           JUNCTION        0.36          0.620        0.000
  YS02001625           JUNCTION        0.50          0.780        0.000
  YS02001629           JUNCTION        0.32          0.470        0.000
  YS02001633           JUNCTION        0.51          1.056        0.004
  YS02001641           JUNCTION        0.46          1.062        0.038
  YS02001644           JUNCTION        0.43          0.920        0.000
  YS02001647           JUNCTION        0.27          0.751        0.149
  YS02001649           JUNCTION        0.35          0.829        0.221
  YS02001652           JUNCTION        0.21          0.590        0.540
  YS02001655           JUNCTION        0.09          0.572        0.628
  YS02001658           JUNCTION        0.01          0.326        0.974
  YS02001751           JUNCTION        0.01          0.318        0.882
  YS02001754           JUNCTION        0.11          0.376        0.774
  YS02001757           JUNCTION        0.38          0.784        0.426
  YS02001759           JUNCTION        0.31          0.836        0.374
  YS02001762           JUNCTION        0.28          0.970        0.180
  YS02001765           JUNCTION        0.25          1.059        0.041
  YS02001767           JUNCTION        0.24          1.030        0.000
  YS02001770           JUNCTION        0.22          0.920        0.000
  YS02001774           JUNCTION        0.27          1.050        0.000
  YS02001779           JUNCTION        0.12          0.680        0.000
  YS02001783           JUNCTION        0.27          0.510        1.090
  YS02001784           JUNCTION        0.25          0.355        1.135
  YS02001786           JUNCTION        0.16          0.089        1.341
  YS02001882           JUNCTION        0.23          0.830        0.000
  YS02001884           JUNCTION        0.24          0.870        0.000
  YS02001887           JUNCTION        0.26          0.950        0.000
  YS02001890           JUNCTION        0.27          0.760        0.000
  YS02001895           JUNCTION        0.22          0.750        0.000
  YS02001898           JUNCTION        0.21          0.740        0.000
  YS02001901           JUNCTION        0.25          0.870        0.000
  YS02001904           JUNCTION        0.25          0.837        0.013
  YS02001907           JUNCTION        0.42          0.950        0.000
  YS02001910           JUNCTION        0.29          1.100        0.000
  YS02001915           JUNCTION        0.23          1.000        0.000
  YS02001918           JUNCTION        0.16          0.810        0.000
  YS02001920           JUNCTION        0.17          1.107        0.033
  YS02001923           JUNCTION        0.01          0.820        0.000
  YS02001926           JUNCTION        0.01          0.900        0.000
  YS02001929           JUNCTION        0.01          0.780        0.000
  YS02006553           JUNCTION        0.43          0.970        0.220
  YS02006556           JUNCTION        0.36          0.890        0.460
  YS02006558           JUNCTION        0.35          0.871        0.529
  YS02006561           JUNCTION        0.12          0.304        0.846
  YS02163301           JUNCTION        0.50          0.948        0.082
  YS02163601           JUNCTION        0.53          1.080        0.000
  YS02164001           JUNCTION        0.46          1.082        0.018
  
  
  *********************
  Node Flooding Summary
  *********************
  
  Flooding refers to all water that overflows a node, whether it ponds or not.
  --------------------------------------------------------------------------
                                                             Total   Maximum
                                 Maximum   Time of Max       Flood    Ponded
                        Hours       Rate    Occurrence      Volume     Depth
  Node                 Flooded       LPS   days hr:min    10^6 ltr    Meters
  --------------------------------------------------------------------------
  WS02006234              0.01     11.48      0  02:16       0.000     0.000
  WS02006235              0.01     18.60      0  02:16       0.000     0.000
  WS02006238              0.01     10.35      0  02:16       0.000     0.000
  WS02006239              0.01      4.68      0  02:16       0.000     0.000
  WS02006240              0.01      4.46      0  02:16       0.000     0.000
  WS02006242              0.01     19.54      0  02:16       0.000     0.000
  WS02006243              0.01      3.27      0  02:16       0.000     0.000
  WS02006245              0.01      1.19      0  02:16       0.000     0.000
  WS02006248              0.01     30.30      0  02:05       0.000     0.000
  WS02006249              0.57     80.68      0  02:22       0.135     0.000
  WS02006252              0.01    259.41      0  03:10       0.001     0.000
  WS02006256              0.93    293.19      0  00:00       0.286     0.000
  YS02001580              0.01    100.05      0  01:59       0.000     0.000
  YS02001583              0.01    227.15      0  01:59       0.000     0.000
  YS02001586              0.18    127.33      0  02:00       0.029     0.000
  YS02001590              0.01    115.26      0  01:58       0.000     0.000
  YS02001600              0.01     11.14      0  02:20       0.000     0.000
  YS02001601              0.33    615.46      0  02:03       0.436     0.000
  YS02001602              0.26     62.01      0  02:05       0.049     0.000
  YS02001605              0.01      1.61      0  01:59       0.000     0.000
  YS02001607              0.01     13.44      0  01:59       0.000     0.000
  YS02001610              0.20    178.31      0  02:05       0.084     0.000
  YS02001616              0.01     25.46      0  01:59       0.000     0.000
  YS02001619              0.01    110.79      0  01:59       0.000     0.000
  YS02001622              0.01    312.28      0  01:59       0.001     0.000
  YS02001625              0.17    466.81      0  02:04       0.144     0.000
  YS02001629              0.01    339.66      0  01:59       0.002     0.000
  YS02001644              0.01     17.21      0  02:01       0.000     0.000
  YS02001767              0.01     31.94      0  02:02       0.000     0.000
  YS02001770              0.01     93.05      0  02:02       0.000     0.000
  YS02001774              0.01    106.88      0  02:02       0.000     0.000
  YS02001779              0.01    429.41      0  02:02       0.003     0.000
  YS02001882              0.01     53.93      0  02:00       0.000     0.000
  YS02001884              0.01     31.82      0  02:00       0.000     0.000
  YS02001887              0.01     14.95      0  02:00       0.000     0.000
  YS02001890              0.01     68.69      0  02:00       0.000     0.000
  YS02001895              0.01     67.41      0  02:00       0.000     0.000
  YS02001898              0.01    174.83      0  02:00       0.000     0.000
  YS02001901              0.01     18.61      0  02:00       0.000     0.000
  YS02001907              0.10    728.46      0  02:03       0.113     0.000
  YS02001910              0.01     10.95      0  02:02       0.000     0.000
  YS02001915              0.01    203.01      0  02:00       0.000     0.000
  YS02001918              0.01     79.93      0  02:02       0.001     0.000
  YS02001923              0.01     78.52      0  02:02       0.000     0.000
  YS02001926              0.01     43.26      0  02:02       0.000     0.000
  YS02001929              0.01    240.11      0  02:02       0.001     0.000
  YS02163601              0.01      6.71      0  02:01       0.000     0.000
  
  
  **********************
  Storage Volume Summary
  **********************
  
  ------------------------------------------------------------------------------------------------
                         Average    Avg   Evap  Exfil     Maximum    Max    Time of Max    Maximum
                          Volume   Pcnt   Pcnt   Pcnt      Volume   Pcnt     Occurrence    Outflow
  Storage Unit           1000 m³   Full   Loss   Loss     1000 m³   Full    days hr:min        LPS
  ------------------------------------------------------------------------------------------------
  CC-storage               2.087   32.6    0.0    0.0       4.015   62.6       0  02:19    1783.53
  JK-storage               0.151   51.8    0.0    0.0       0.212   72.8       0  02:05    2300.00
  XR-storage               0.941   65.3    0.0    0.0       1.111   77.2       0  08:00     380.00
  
  
  ***********************
  Outfall Loading Summary
  ***********************
  
  -----------------------------------------------------------
                         Flow       Avg       Max       Total
                         Freq      Flow      Flow      Volume
  Outfall Node           Pcnt       LPS       LPS    10^6 ltr
  -----------------------------------------------------------
  CC-1                  27.43    683.00    683.00       2.952
  CC-2                  24.44    683.00    683.00       2.689
  JK-1                  12.03   1000.00   1000.00       1.465
  JK-2                   0.27   1000.00   1000.00       0.048
  WSC                   99.92    345.76    750.37       8.447
  -----------------------------------------------------------
  System                32.82   3711.76   3366.23      15.601
  
  
  ********************
  Link Flow Summary
  ********************
  
  -----------------------------------------------------------------------------
                                 Maximum  Time of Max   Maximum    Max/    Max/
                                  |Flow|   Occurrence   |Veloc|    Full    Full
  Link                 Type          LPS  days hr:min     m/sec    Flow   Depth
  -----------------------------------------------------------------------------
  1                    CONDUIT    750.37     0  02:47      3.08    0.26    0.35
  WS02001211WS02001212 CONDUIT    202.41     0  02:50      0.54    0.15    0.51
  WS02001212WS02001213 CONDUIT    204.27     0  02:51      1.04    0.32    0.36
  WS02001213WS02003059 CONDUIT    208.69     0  03:19      0.47    0.34    0.67
  WS02003059WS02003060 CONDUIT    215.14     0  03:23      0.67    0.14    0.58
  WS02003060WS02003069 CONDUIT    748.68     0  02:46      1.77    0.29    0.40
  WS02003066WSF200     CONDUIT    535.95     0  02:45      2.73    0.09    0.23
  WS02003067WS02003066 CONDUIT    535.95     0  02:45      1.21    0.17    0.42
  WS02003069WS02003072 CONDUIT    748.86     0  02:46      1.51    0.36    0.45
  WS02003072WS02003073 CONDUIT    748.72     0  02:47      1.59    1.62    0.43
  WS02004138WS02004139 CONDUIT    190.84     0  00:29      2.17    0.04    0.33
  WS02004139WS02001211 CONDUIT    193.00     0  02:50      0.54    0.24    0.47
  WS02004401WS02004402 CONDUIT    536.90     0  02:43      0.97    0.64    0.86
  WS02004402WS02004403 CONDUIT    536.79     0  02:43      0.97    0.77    0.88
  WS02004403WS02004404 CONDUIT    536.72     0  02:43      0.92    0.39    0.93
  WS02004404WS02004405 CONDUIT    536.89     0  02:43      1.08    5.26    0.96
  WS02004405WS02004406 CONDUIT    536.98     0  02:43      0.99    1.06    0.96
  WS02004406WS02004407 CONDUIT    536.75     0  02:43      1.04    0.24    0.63
  WS02004407WS02004409 CONDUIT    536.61     0  02:43      1.55    0.19    0.48
  WS02004409WS02004410 CONDUIT    536.36     0  02:44      1.05    0.69    0.67
  WS02004410WS02004411 CONDUIT    536.26     0  02:44      1.00    0.73    0.69
  WS02004411WS02004412 CONDUIT    536.15     0  02:44      0.95    0.76    0.69
  WS02004412WS02004413 CONDUIT    536.04     0  02:45      0.82    0.36    0.78
  WS02004413WS02003067 CONDUIT    535.96     0  02:45      1.11    0.23    0.59
  WS02006109WS02006110 CONDUIT    558.88     0  02:22      1.11    1.07    1.00
  WS02006110WS02006113 CONDUIT    567.88     0  02:23      1.37    0.52    0.79
  WS02006111WS02006112 CONDUIT    544.44     0  03:04      1.82    0.26    0.67
  WS02006112WS02006115 CONDUIT    552.84     0  02:24      0.88    0.33    0.87
  WS02006113WS02006111 CONDUIT    561.74     0  03:03      2.47    0.67    0.46
  WS02006115WS02006116 CONDUIT    537.86     0  02:18      1.09    0.69    0.76
  WS02006116WS02004401 CONDUIT    537.11     0  02:42      0.98    0.74    0.84
  WS02006228WS02006109 CONDUIT    558.48     0  02:22      1.11    2.44    1.00
  WS02006229WS02006228 CONDUIT    557.38     0  02:22      1.15    1.85    1.00
  WS02006230WS02006229 CONDUIT    557.50     0  02:22      1.45   12.41    1.00
  WS02006231WS02006230 CONDUIT    583.82     0  02:10      1.58    8.86    1.00
  WS02006232WS02006231 CONDUIT    569.95     0  02:59      1.49    1.19    1.00
  WS02006234WS02006232 CONDUIT    568.90     0  02:59      1.48    1.15    1.00
  WS02006235WS02006234 CONDUIT    564.90     0  02:59      1.47    5.96    1.00
  WS02006238WS02006235 CONDUIT    424.18     0  02:25      1.57    0.95    1.00
  WS02006239WS02006238 CONDUIT    423.71     0  02:20      1.11    1.36    1.00
  WS02006240WS02006239 CONDUIT    422.38     0  02:20      1.24    1.33    1.00
  WS02006242WS02006240 CONDUIT    421.29     0  03:00      1.12    1.67    1.00
  WS02006243WS02006242 CONDUIT    422.63     0  03:00      1.39    0.90    1.00
  WS02006245WS02006243 CONDUIT    422.91     0  03:00      1.45    1.25    1.00
  WS02006247WS02006245 CONDUIT    423.84     0  03:00      1.44    3.36    1.00
  WS02006248WS02006247 CONDUIT    424.11     0  03:00      1.45    0.92    1.00
  WS02006249WS02006248 CONDUIT    426.10     0  03:00      1.37    2.33    1.00
  WS02006251WS02006249 CONDUIT    458.97     0  00:00      1.99    1.32    1.00
  WS02006252WS02006251 CONDUIT    406.30     0  02:06     25.11    1.49    1.00
  WS02006256WS02006235 CONDUIT    289.22     0  01:57      4.23    3.06    1.00
  WSF200WS02003060     CONDUIT    536.01     0  02:45      1.75    0.12    0.32
  YS02001580YS02001583 CONDUIT    153.32     0  01:59      0.85    0.59    1.00
  YS02001583YS02001586 CONDUIT    194.90     0  01:59      0.85    0.29    1.00
  YS02001586YS02001590 CONDUIT    318.06     0  02:05      1.28    0.56    1.00
  YS02001590YS02001593 CONDUIT    318.20     0  02:05      1.13    2.00    1.00
  YS02001593YS02001596 CONDUIT    317.95     0  02:03      1.72    0.50    1.00
  YS02001596YS02001600 CONDUIT    317.95     0  02:02      1.20    0.62    1.00
  YS02001600YS02001601 CONDUIT    317.91     0  02:09      1.12    0.55    1.00
  YS02001601YS02001602 CONDUIT    562.39     0  01:59      1.99    2.03    1.00
  YS02001602YS02001605 CONDUIT    562.46     0  01:59      1.99   11.90    1.00
  YS02001605YS02001607 CONDUIT    562.33     0  01:59      1.99    3.08    1.00
  YS02001607YS02001610 CONDUIT    551.66     0  01:59      0.70    0.52    1.00
  YS02001610YS02001613 CONDUIT    559.61     0  01:59      0.71    0.65    1.00
  YS02001613YS02001616 CONDUIT    579.03     0  01:59      0.74    0.50    1.00
  YS02001616YS02001619 CONDUIT    534.30     0  01:59      0.68    0.93    1.00
  YS02001619YS02001622 CONDUIT   1011.40     0  01:59      1.29    1.49    1.00
  YS02001622YS02001625 CONDUIT    960.79     0  01:59      1.22    0.51    1.00
  YS02001625YS02001629 CONDUIT    961.04     0  01:59      1.23    0.46    1.00
  YS02001629YS02163301 CONDUIT    928.99     0  02:01      1.18    1.14    1.00
  YS02001633YS02163601 CONDUIT   1428.86     0  02:01      1.82    1.50    1.00
  YS02001641YS02001644 CONDUIT   1429.66     0  02:01      1.82    4.62    1.00
  YS02001644YS02001647 CONDUIT   1867.51     0  02:01      2.40    1.10    1.00
  YS02001647YS02001649 CONDUIT   1844.57     0  02:01      2.40    0.97    1.00
  YS02001649YS02001757 CONDUIT   2164.90     0  02:01      2.76    1.31    1.00
  YS02001652YS02001649 CONDUIT    526.55     0  02:05      0.77    0.26    1.00
  YS02001655YS02001652 CONDUIT    526.33     0  02:05      1.42    0.26    1.00
  YS02001658YS02001655 CONDUIT    565.21     0  02:07      2.01    0.24    1.00
  YS02001661YS02001658 CONDUIT    653.52     0  02:06      2.37    0.26    0.79
  YS02001664YS02001661 CONDUIT    462.07     0  02:02      2.24    0.14    0.48
  YS02001745YS02001748 CONDUIT    453.77     0  02:03      2.18    0.17    0.57
  YS02001748YS02001751 CONDUIT    424.46     0  02:04      1.80    0.21    0.94
  YS02001751YS02001754 CONDUIT    343.51     0  02:04      1.50    0.17    1.00
  YS02001754YS02001757 CONDUIT    344.75     0  02:04      0.52    0.14    1.00
  YS02001757CaochengTiaoxuchi CONDUIT   2964.04     0  02:04      3.77    1.28    1.00
  YS02001759YS02001757 CONDUIT   1056.60     0  02:02      1.35    0.75    1.00
  YS02001762YS02001759 CONDUIT    638.94     0  02:02      0.81    0.74    1.00
  YS02001765YS02001762 CONDUIT    632.92     0  02:02      0.81    0.59    1.00
  YS02001767YS02001765 CONDUIT    625.39     0  02:02      0.82    0.79    1.00
  YS02001770YS02001767 CONDUIT    617.67     0  02:02      0.85    2.45    1.00
  YS02001774YS02001770 CONDUIT    453.89     0  02:02      0.58    0.29    1.00
  YS02001779YS02001774 CONDUIT    474.64     0  02:02      0.61    0.24    1.00
  YS02001783YS02001784 CONDUIT   1145.91     0  02:03      2.28    1.58    1.00
  YS02001784YS02001785 CONDUIT   1147.80     0  02:03      2.28    2.67    1.00
  YS02001786YS02001788 CONDUIT   1149.42     0  02:03      2.46    2.21    0.89
  YS02001788YS02001790 CONDUIT   1155.17     0  02:04      2.69    0.85    0.83
  YS02001790YS02001791 CONDUIT   1271.58     0  02:03      3.41    1.38    0.70
  YS02001791YS02001793 CONDUIT   1218.35     0  02:04      6.49    0.52    0.44
  YS02001793JiankangQianchi CONDUIT   1205.64     0  02:04      2.34    0.10    0.65
  YS02001882YS02001884 CONDUIT     92.15     0  02:00      0.12    0.11    1.00
  YS02001884YS02001887 CONDUIT    126.00     0  02:00      0.16    0.17    1.00
  YS02001887YS02001890 CONDUIT    485.39     0  02:00      0.62    0.83    1.00
  YS02001890YS02001895 CONDUIT    488.53     0  02:00      0.62    0.23    1.00
  YS02001895YS02001898 CONDUIT    479.90     0  02:01      0.61    0.83    1.00
  YS02001898YS02001901 CONDUIT    494.63     0  02:01      0.63    0.32    1.00
  YS02001901YS02001904 CONDUIT    495.33     0  02:01      0.63    0.77    1.00
  YS02001904YS02001907 CONDUIT    496.79     0  02:01      0.63    0.17    1.00
  YS02001907YS02006553 CONDUIT    784.91     0  02:10      0.87    0.92    1.00
  YS02001910YS02001907 CONDUIT    918.61     0  02:03      1.17    0.52    1.00
  YS02001915YS02001910 CONDUIT    919.27     0  02:03      1.17    0.46    1.00
  YS02001918YS02001915 CONDUIT    459.11     0  02:03      0.60    0.25    1.00
  YS02001920YS02001918 CONDUIT    457.24     0  02:03      0.65    0.44    1.00
  YS02001923YS02001920 CONDUIT    453.02     0  02:03      0.75    0.20    1.00
  YS02001926YS02001923 CONDUIT    403.96     0  02:03      1.00    0.58    1.00
  YS02001929YS02001926 CONDUIT    401.29     0  02:02      1.16    0.19    1.00
  YS02006553YS02006556 CONDUIT    785.50     0  02:10      1.00    0.67    1.00
  YS02006556YS02006558 CONDUIT    786.16     0  02:10      1.00    0.62    1.00
  YS02006558YS02006561 CONDUIT   1175.37     0  02:02      4.16    2.60    1.00
  YS02006561YS02001783 CONDUIT   1145.71     0  02:03      2.30    0.59    1.00
  YS02163301YS02001633 CONDUIT    928.67     0  02:01      1.18    0.87    1.00
  YS02163601YS02164001 CONDUIT   1429.33     0  02:01      1.82    1.27    1.00
  YS02164001YS02001641 CONDUIT   1429.32     0  02:01      1.82    1.95    1.00
  CC-R1                PUMP       683.00     0  00:00              1.00
  CC-R2                PUMP       683.00     0  00:00              1.00
  CC-S1                PUMP       200.00     0  00:00              1.00
  CC-S2                PUMP       200.00     0  00:00              1.00
  JK-R1                PUMP      1000.00     0  00:00              1.00
  JK-R2                PUMP      1000.00     0  00:00              1.00
  JK-S                 PUMP       300.00     0  00:00              1.00
  XR-1                 PUMP        95.00     0  00:00              1.00
  XR-2                 PUMP        95.00     0  00:00              1.00
  XR-3                 PUMP        95.00     0  00:00              1.00
  XR-4                 PUMP        95.00     0  00:00              1.00
  
  
  ***************************
  Flow Classification Summary
  ***************************
  
  -------------------------------------------------------------------------------------
                      Adjusted    ---------- Fraction of Time in Flow Class ---------- 
                       /Actual         Up    Down  Sub   Sup   Up    Down  Norm  Inlet 
  Conduit               Length    Dry  Dry   Dry   Crit  Crit  Crit  Crit  Ltd   Ctrl  
  -------------------------------------------------------------------------------------
  1                       1.00   0.00  0.00  0.00  0.00  1.00  0.00  0.00  0.21  0.00
  WS02001211WS02001212    1.00   0.00  0.02  0.00  0.98  0.00  0.00  0.00  0.00  0.00
  WS02001212WS02001213    1.00   0.02  0.00  0.00  0.15  0.00  0.82  0.00  0.00  0.00
  WS02001213WS02003059    1.00   0.00  0.01  0.00  0.99  0.00  0.00  0.00  0.00  0.00
  WS02003059WS02003060    1.00   0.00  0.00  0.00  1.00  0.00  0.00  0.00  0.03  0.00
  WS02003060WS02003069    1.00   0.00  0.00  0.00  0.98  0.02  0.00  0.00  0.71  0.00
  WS02003066WSF200        1.00   0.13  0.00  0.00  0.00  0.87  0.00  0.00  0.80  0.00
  WS02003067WS02003066    1.00   0.10  0.02  0.00  0.88  0.00  0.00  0.00  0.00  0.00
  WS02003069WS02003072    1.00   0.00  0.00  0.00  1.00  0.00  0.00  0.00  0.82  0.00
  WS02003072WS02003073    1.00   0.00  0.00  0.00  0.00  0.00  0.00  1.00  0.00  0.00
  WS02004138WS02004139    1.00   0.00  0.00  0.00  0.97  0.01  0.00  0.02  0.98  0.00
  WS02004139WS02001211    1.00   0.00  0.00  0.00  0.99  0.00  0.00  0.00  0.00  0.00
  WS02004401WS02004402    1.00   0.02  0.00  0.00  0.98  0.00  0.00  0.00  0.00  0.00
  WS02004402WS02004403    1.00   0.02  0.00  0.00  0.97  0.00  0.00  0.00  0.00  0.00
  WS02004403WS02004404    1.00   0.00  0.03  0.00  0.97  0.00  0.00  0.00  0.00  0.00
  WS02004404WS02004405    1.00   0.00  0.00  0.00  1.00  0.00  0.00  0.00  0.01  0.00
  WS02004405WS02004406    1.00   0.00  0.00  0.00  1.00  0.00  0.00  0.00  0.00  0.00
  WS02004406WS02004407    1.00   0.00  0.05  0.00  0.95  0.00  0.00  0.00  0.00  0.00
  WS02004407WS02004409    1.00   0.05  0.00  0.00  0.94  0.01  0.00  0.00  0.94  0.00
  WS02004409WS02004410    1.00   0.05  0.00  0.00  0.95  0.00  0.00  0.00  0.03  0.00
  WS02004410WS02004411    1.00   0.05  0.00  0.00  0.95  0.00  0.00  0.00  0.01  0.00
  WS02004411WS02004412    1.00   0.05  0.00  0.00  0.95  0.00  0.00  0.00  0.00  0.00
  WS02004412WS02004413    1.00   0.05  0.00  0.00  0.94  0.00  0.00  0.00  0.01  0.00
  WS02004413WS02003067    1.00   0.06  0.04  0.00  0.00  0.00  0.90  0.00  0.00  0.00
  WS02006109WS02006110    1.00   0.00  0.01  0.00  0.98  0.00  0.01  0.00  0.00  0.00
  WS02006110WS02006113    1.00   0.01  0.01  0.00  0.98  0.00  0.00  0.00  0.00  0.00
  WS02006111WS02006112    1.00   0.02  0.00  0.00  0.98  0.00  0.00  0.00  0.98  0.00
  WS02006112WS02006115    1.00   0.02  0.00  0.00  0.97  0.00  0.00  0.00  0.00  0.00
  WS02006113WS02006111    1.00   0.02  0.00  0.00  0.00  0.98  0.00  0.00  0.08  0.00
  WS02006115WS02006116    1.00   0.02  0.00  0.00  0.97  0.00  0.00  0.01  0.00  0.00
  WS02006116WS02004401    1.00   0.02  0.00  0.00  0.98  0.00  0.00  0.00  0.00  0.00
  WS02006228WS02006109    1.00   0.00  0.00  0.00  1.00  0.00  0.00  0.00  0.00  0.00
  WS02006229WS02006228    1.00   0.00  0.00  0.00  0.99  0.00  0.00  0.01  0.00  0.00
  WS02006230WS02006229    1.00   0.00  0.00  0.00  0.99  0.00  0.00  0.01  0.02  0.00
  WS02006231WS02006230    1.00   0.00  0.00  0.00  0.14  0.00  0.86  0.00  0.00  0.00
  WS02006232WS02006231    1.00   0.00  0.00  0.00  0.98  0.00  0.01  0.00  0.00  0.00
  WS02006234WS02006232    1.00   0.00  0.00  0.00  1.00  0.00  0.00  0.00  0.37  0.00
  WS02006235WS02006234    1.00   0.00  0.00  0.00  0.57  0.00  0.43  0.00  0.00  0.00
  WS02006238WS02006235    1.00   0.00  0.00  0.00  1.00  0.00  0.00  0.00  0.00  0.00
  WS02006239WS02006238    1.00   0.00  0.00  0.00  1.00  0.00  0.00  0.00  0.52  0.00
  WS02006240WS02006239    1.00   0.00  0.00  0.00  0.38  0.00  0.00  0.61  0.02  0.00
  WS02006242WS02006240    1.00   0.00  0.00  0.00  1.00  0.00  0.00  0.00  0.00  0.00
  WS02006243WS02006242    1.00   0.00  0.00  0.00  0.99  0.00  0.00  0.01  0.77  0.00
  WS02006245WS02006243    1.00   0.00  0.00  0.00  0.42  0.00  0.00  0.58  0.02  0.00
  WS02006247WS02006245    1.00   0.00  0.00  0.00  0.97  0.00  0.00  0.03  0.00  0.00
  WS02006248WS02006247    1.00   0.00  0.00  0.00  0.99  0.00  0.00  0.01  0.25  0.00
  WS02006249WS02006248    1.00   0.00  0.00  0.00  0.27  0.00  0.73  0.00  0.00  0.00
  WS02006251WS02006249    1.00   0.00  0.00  0.00  0.99  0.01  0.00  0.00  0.77  0.00
  WS02006252WS02006251    1.00   0.00  0.79  0.00  0.07  0.00  0.13  0.00  0.00  0.00
  WS02006256WS02006235    1.00   0.00  0.00  0.00  0.99  0.01  0.00  0.00  0.00  0.00
  WSF200WS02003060        1.00   0.00  0.13  0.00  0.74  0.13  0.00  0.00  0.72  0.00
  YS02001580YS02001583    1.00   0.25  0.61  0.00  0.15  0.00  0.00  0.00  0.70  0.00
  YS02001583YS02001586    1.00   0.51  0.29  0.00  0.20  0.00  0.00  0.00  0.70  0.00
  YS02001586YS02001590    1.00   0.13  0.00  0.00  0.35  0.04  0.00  0.48  0.33  0.00
  YS02001590YS02001593    1.00   0.13  0.01  0.00  0.07  0.00  0.80  0.00  0.00  0.00
  YS02001593YS02001596    1.00   0.14  0.00  0.00  0.08  0.01  0.00  0.78  0.01  0.00
  YS02001596YS02001600    1.00   0.14  0.00  0.00  0.14  0.02  0.00  0.70  0.05  0.00
  YS02001600YS02001601    1.00   0.13  0.01  0.00  0.86  0.00  0.00  0.00  0.66  0.00
  YS02001601YS02001602    1.00   0.13  0.01  0.00  0.86  0.00  0.00  0.00  0.00  0.00
  YS02001602YS02001605    1.00   0.14  0.00  0.00  0.86  0.00  0.00  0.00  0.00  0.00
  YS02001605YS02001607    1.00   0.14  0.00  0.00  0.86  0.00  0.00  0.00  0.00  0.00
  YS02001607YS02001610    1.00   0.13  0.01  0.00  0.86  0.00  0.00  0.00  0.02  0.00
  YS02001610YS02001613    1.00   0.13  0.00  0.00  0.87  0.00  0.00  0.00  0.01  0.00
  YS02001613YS02001616    1.00   0.13  0.00  0.00  0.87  0.00  0.00  0.00  0.01  0.00
  YS02001616YS02001619    1.00   0.13  0.00  0.00  0.87  0.00  0.00  0.00  0.00  0.00
  YS02001619YS02001622    1.00   0.13  0.00  0.00  0.87  0.00  0.00  0.00  0.36  0.00
  YS02001622YS02001625    1.00   0.13  0.00  0.00  0.87  0.00  0.00  0.00  0.06  0.00
  YS02001625YS02001629    1.00   0.13  0.06  0.00  0.10  0.00  0.71  0.00  0.00  0.00
  YS02001629YS02163301    1.00   0.17  0.01  0.00  0.82  0.00  0.00  0.00  0.00  0.00
  YS02001633YS02163601    1.00   0.00  0.01  0.00  0.99  0.00  0.00  0.00  0.16  0.00
  YS02001641YS02001644    1.00   0.00  0.01  0.00  0.99  0.00  0.00  0.00  0.00  0.00
  YS02001644YS02001647    1.00   0.00  0.19  0.00  0.81  0.00  0.00  0.00  0.00  0.00
  YS02001647YS02001649    1.00   0.00  0.19  0.00  0.54  0.27  0.00  0.00  0.61  0.00
  YS02001649YS02001757    1.00   0.00  0.00  0.00  0.70  0.30  0.00  0.00  0.59  0.00
  YS02001652YS02001649    1.00   0.00  0.00  0.00  0.96  0.04  0.00  0.00  0.81  0.00
  YS02001655YS02001652    1.00   0.00  0.00  0.00  0.11  0.02  0.00  0.87  0.05  0.00
  YS02001658YS02001655    1.00   0.00  0.15  0.00  0.63  0.22  0.00  0.00  0.75  0.00
  YS02001661YS02001658    1.00   0.15  0.00  0.00  0.50  0.36  0.00  0.00  0.74  0.00
  YS02001664YS02001661    1.00   0.13  0.00  0.00  0.78  0.09  0.00  0.00  0.87  0.00
  YS02001745YS02001748    1.00   0.00  0.00  0.00  0.04  0.01  0.00  0.95  0.04  0.00
  YS02001748YS02001751    1.00   0.00  0.00  0.00  0.82  0.18  0.00  0.00  0.82  0.00
  YS02001751YS02001754    1.00   0.00  0.00  0.00  0.09  0.00  0.00  0.91  0.02  0.00
  YS02001754YS02001757    1.00   0.00  0.00  0.00  1.00  0.00  0.00  0.00  0.90  0.00
  YS02001757CaochengTiaoxuchi    1.00   0.00  0.00  0.00  1.00  0.00  0.00  0.00  0.89  0.00
  YS02001759YS02001757    1.00   0.00  0.00  0.00  1.00  0.00  0.00  0.00  0.65  0.00
  YS02001762YS02001759    1.00   0.00  0.00  0.00  1.00  0.00  0.00  0.00  0.05  0.00
  YS02001765YS02001762    1.00   0.00  0.00  0.00  1.00  0.00  0.00  0.00  0.79  0.00
  YS02001767YS02001765    1.00   0.00  0.00  0.00  1.00  0.00  0.00  0.00  0.00  0.00
  YS02001770YS02001767    1.00   0.00  0.00  0.00  1.00  0.00  0.00  0.00  0.00  0.00
  YS02001774YS02001770    1.00   0.00  0.14  0.00  0.59  0.00  0.27  0.00  0.04  0.00
  YS02001779YS02001774    1.00   0.00  0.00  0.00  1.00  0.00  0.00  0.00  0.85  0.00
  YS02001783YS02001784    1.00   0.00  0.20  0.00  0.80  0.00  0.00  0.00  0.59  0.00
  YS02001784YS02001785    1.00   0.00  0.00  0.00  1.00  0.00  0.00  0.00  0.19  0.00
  YS02001786YS02001788    1.00   0.00  0.00  0.00  0.81  0.19  0.00  0.00  0.00  0.00
  YS02001788YS02001790    1.00   0.00  0.00  0.00  0.21  0.79  0.00  0.00  0.87  0.00
  YS02001790YS02001791    1.00   0.00  0.00  0.00  0.01  0.99  0.00  0.00  0.14  0.00
  YS02001791YS02001793    1.00   0.00  0.00  0.00  0.00  1.00  0.00  0.00  0.00  0.00
  YS02001793JiankangQianchi    1.00   0.00  0.00  0.00  1.00  0.00  0.00  0.00  0.97  0.00
  YS02001882YS02001884    1.00   0.16  0.01  0.00  0.83  0.00  0.00  0.00  0.00  0.00
  YS02001884YS02001887    1.00   0.06  0.05  0.00  0.89  0.00  0.00  0.00  0.00  0.00
  YS02001887YS02001890    1.00   0.00  0.00  0.00  0.97  0.00  0.03  0.00  0.00  0.00
  YS02001890YS02001895    1.00   0.00  0.18  0.00  0.82  0.00  0.00  0.00  0.00  0.00
  YS02001895YS02001898    1.00   0.18  0.00  0.00  0.80  0.00  0.02  0.00  0.00  0.00
  YS02001898YS02001901    1.00   0.18  0.00  0.00  0.82  0.00  0.00  0.00  0.01  0.00
  YS02001901YS02001904    1.00   0.18  0.00  0.00  0.82  0.00  0.00  0.00  0.00  0.00
  YS02001904YS02001907    1.00   0.00  0.18  0.00  0.82  0.00  0.00  0.00  0.00  0.00
  YS02001907YS02006553    1.00   0.00  0.02  0.00  0.98  0.00  0.00  0.00  0.00  0.00
  YS02001910YS02001907    1.00   0.00  0.00  0.00  0.97  0.00  0.00  0.03  0.12  0.00
  YS02001915YS02001910    1.00   0.00  0.00  0.00  0.96  0.04  0.00  0.00  0.18  0.00
  YS02001918YS02001915    1.00   0.00  0.01  0.00  0.98  0.02  0.00  0.00  0.80  0.00
  YS02001920YS02001918    1.00   0.00  0.01  0.00  0.99  0.00  0.00  0.00  0.00  0.00
  YS02001923YS02001920    1.00   0.00  0.00  0.00  1.00  0.00  0.00  0.00  0.96  0.00
  YS02001926YS02001923    1.00   0.00  0.07  0.00  0.03  0.00  0.90  0.00  0.00  0.00
  YS02001929YS02001926    1.00   0.00  0.13  0.00  0.87  0.00  0.00  0.00  0.85  0.00
  YS02006553YS02006556    1.00   0.01  0.00  0.00  0.99  0.00  0.00  0.00  0.03  0.00
  YS02006556YS02006558    1.00   0.00  0.00  0.00  1.00  0.00  0.00  0.00  0.00  0.00
  YS02006558YS02006561    1.00   0.20  0.00  0.00  0.03  0.78  0.00  0.00  0.18  0.00
  YS02006561YS02001783    1.00   0.20  0.00  0.00  0.05  0.75  0.00  0.00  0.72  0.00
  YS02163301YS02001633    1.00   0.00  0.17  0.00  0.83  0.00  0.00  0.00  0.00  0.00
  YS02163601YS02164001    1.00   0.00  0.08  0.00  0.92  0.00  0.00  0.00  0.00  0.00
  YS02164001YS02001641    1.00   0.01  0.07  0.00  0.92  0.00  0.00  0.00  0.06  0.00
  
  
  *************************
  Conduit Surcharge Summary
  *************************
  
  ----------------------------------------------------------------------------
                                                           Hours        Hours 
                         --------- Hours Full --------   Above Full   Capacity
  Conduit                Both Ends  Upstream  Dnstream   Normal Flow   Limited
  ----------------------------------------------------------------------------
  WS02003072WS02003073        0.01      0.01      0.01      1.21         0.01
  WS02004404WS02004405        0.01      0.01      0.01      1.62         0.01
  WS02004405WS02004406        0.01      0.01      0.01      0.41         0.01
  WS02006109WS02006110        0.45      0.45      1.10      0.52         0.01
  WS02006110WS02006113        0.01      0.01      1.09      0.01         0.01
  WS02006111WS02006112        0.01      0.01      1.18      0.01         0.01
  WS02006112WS02006115        0.01      0.01      0.44      0.01         0.01
  WS02006228WS02006109        1.08      1.10      1.08      1.23         1.08
  WS02006229WS02006228        1.07      1.08      1.07      1.17         1.06
  WS02006230WS02006229        1.12      1.14      1.12      2.28         1.12
  WS02006231WS02006230        0.46      0.46      0.58      1.92         0.01
  WS02006232WS02006231        0.54      0.54      1.11      0.58         0.01
  WS02006234WS02006232        1.04      1.04      1.11      0.57         0.58
  WS02006235WS02006234        0.73      0.74      1.05      1.70         0.01
  WS02006238WS02006235        1.07      1.07      1.10      0.01         0.01
  WS02006239WS02006238        1.09      1.10      1.09      1.11         0.99
  WS02006240WS02006239        1.06      1.08      1.07      1.11         0.93
  WS02006242WS02006240        1.07      1.07      1.10      1.17         0.01
  WS02006243WS02006242        1.08      1.08      1.09      0.01         0.03
  WS02006245WS02006243        1.07      1.07      1.08      0.65         0.60
  WS02006247WS02006245        1.07      1.07      1.07      1.32         1.06
  WS02006248WS02006247        1.07      1.07      1.07      0.01         0.03
  WS02006249WS02006248        1.06      1.06      1.06      1.29         0.01
  WS02006251WS02006249        1.06      1.06      1.06      1.18         1.02
  WS02006252WS02006251        1.26      1.26      1.26      1.27         0.01
  WS02006256WS02006235        1.81      1.85      3.84      0.94         0.01
  YS02001580YS02001583        0.27      0.27      0.31      0.01         0.01
  YS02001583YS02001586        0.27      0.27      0.39      0.01         0.01
  YS02001586YS02001590        0.39      0.39      0.44      0.01         0.01
  YS02001590YS02001593        0.45      0.45      0.46      0.48         0.01
  YS02001593YS02001596        0.46      0.46      0.53      0.01         0.01
  YS02001596YS02001600        0.56      0.56      0.63      0.01         0.01
  YS02001600YS02001601        0.68      0.68      0.94      0.01         0.01
  YS02001601YS02001602        0.83      0.83      0.98      0.64         0.01
  YS02001602YS02001605        0.78      0.78      0.83      1.77         0.01
  YS02001605YS02001607        0.74      0.78      0.74      0.89         0.74
  YS02001607YS02001610        0.41      0.41      0.43      0.01         0.01
  YS02001610YS02001613        0.40      0.40      0.43      0.01         0.01
  YS02001613YS02001616        0.37      0.37      0.40      0.01         0.01
  YS02001616YS02001619        0.37      0.37      0.37      0.01         0.01
  YS02001619YS02001622        0.36      0.37      0.36      0.48         0.33
  YS02001622YS02001625        0.36      0.36      0.50      0.01         0.01
  YS02001625YS02001629        0.32      0.32      0.50      0.01         0.01
  YS02001629YS02163301        0.49      0.49      0.50      0.14         0.14
  YS02001633YS02163601        0.51      0.51      0.53      0.31         0.32
  YS02001641YS02001644        0.43      0.46      0.43      1.03         0.43
  YS02001644YS02001647        0.27      0.27      0.43      0.04         0.01
  YS02001647YS02001649        0.27      0.27      0.35      0.01         0.01
  YS02001649YS02001757        0.35      0.35      0.38      0.18         0.14
  YS02001652YS02001649        0.23      0.23      0.35      0.01         0.01
  YS02001655YS02001652        0.09      0.09      0.21      0.01         0.01
  YS02001658YS02001655        0.01      0.01      0.09      0.01         0.01
  YS02001661YS02001658        0.01      0.01      0.01      0.01         0.01
  YS02001748YS02001751        0.01      0.01      0.01      0.01         0.01
  YS02001751YS02001754        0.01      0.01      0.11      0.01         0.01
  YS02001754YS02001757        0.16      0.16      0.38      0.01         0.01
  YS02001757CaochengTiaoxuchi        0.38      0.38      0.83      0.18         0.15
  YS02001759YS02001757        0.31      0.31      0.38      0.01         0.01
  YS02001762YS02001759        0.28      0.28      0.31      0.01         0.01
  YS02001765YS02001762        0.25      0.25      0.28      0.01         0.01
  YS02001767YS02001765        0.24      0.24      0.25      0.01         0.01
  YS02001770YS02001767        0.23      0.23      0.24      0.28         0.15
  YS02001774YS02001770        0.22      0.22      0.27      0.01         0.01
  YS02001779YS02001774        0.12      0.12      0.27      0.01         0.01
  YS02001783YS02001784        0.25      0.27      0.25      0.38         0.25
  YS02001784YS02001785        0.16      0.25      0.16      0.53         0.16
  YS02001786YS02001788        0.01      0.16      0.01      0.45         0.01
  YS02001790YS02001791        0.01      0.01      0.01      0.24         0.01
  YS02001793JiankangQianchi        0.01      0.01      7.70      0.01         0.01
  YS02001882YS02001884        0.23      0.23      0.24      0.01         0.01
  YS02001884YS02001887        0.26      0.26      0.26      0.01         0.01
  YS02001887YS02001890        0.27      0.27      0.28      0.01         0.01
  YS02001890YS02001895        0.22      0.22      0.30      0.01         0.01
  YS02001895YS02001898        0.21      0.21      0.22      0.01         0.01
  YS02001898YS02001901        0.22      0.22      0.25      0.01         0.01
  YS02001901YS02001904        0.25      0.25      0.25      0.01         0.01
  YS02001904YS02001907        0.25      0.25      0.43      0.01         0.01
  YS02001907YS02006553        0.53      0.53      0.59      0.01         0.01
  YS02001910YS02001907        0.29      0.29      0.42      0.01         0.01
  YS02001915YS02001910        0.23      0.23      0.29      0.01         0.01
  YS02001918YS02001915        0.16      0.16      0.23      0.01         0.01
  YS02001920YS02001918        0.16      0.16      0.17      0.01         0.01
  YS02001923YS02001920        0.09      0.09      0.17      0.01         0.01
  YS02001926YS02001923        0.01      0.01      0.01      0.01         0.01
  YS02001929YS02001926        0.01      0.01      0.01      0.01         0.01
  YS02006553YS02006556        0.36      0.36      0.43      0.01         0.01
  YS02006556YS02006558        0.40      0.40      0.44      0.01         0.01
  YS02006558YS02006561        0.19      0.35      0.19      0.50         0.19
  YS02006561YS02001783        0.12      0.12      0.27      0.01         0.01
  YS02163301YS02001633        0.50      0.50      0.52      0.01         0.01
  YS02163601YS02164001        0.46      0.46      0.53      0.05         0.01
  YS02164001YS02001641        0.46      0.46      0.46      0.56         0.45
  
  
  ***************
  Pumping Summary
  ***************
  
  ---------------------------------------------------------------------------------------------------------
                                                  Min       Avg       Max     Total     Power    % Time Off
                        Percent   Number of      Flow      Flow      Flow    Volume     Usage    Pump Curve
  Pump                 Utilized   Start-Ups       LPS       LPS       LPS  10^6 ltr     Kw-hr    Low   High
  ---------------------------------------------------------------------------------------------------------
  CC-R1                   15.00          16      0.00    683.00    683.00     2.951     53.03    0.0   36.2
  CC-R2                   13.66          16      0.00    683.00    683.00     2.687     48.14    0.0   39.7
  CC-S1                   17.14          16      0.00    200.00    200.00     0.987      6.09    0.0    0.0
  CC-S2                   15.82          16      0.00    200.00    200.00     0.911      5.63    0.0    0.0
  JK-R1                    5.08           8      0.00   1000.00   1000.00     1.462     16.97    0.0    0.0
  JK-R2                    0.16           1      0.00   1000.00   1000.00     0.047      0.36    0.0    0.0
  JK-S                    11.61          15      0.00    300.00    300.00     1.003     14.52    0.0    0.0
  XR-1                    97.91           2      0.00     95.00     95.00     2.679      9.60    0.0    0.0
  XR-2                    93.94           2      0.00     95.00     95.00     2.570      8.76    0.0    0.0
  XR-3                     0.00           1      0.00     95.00     95.00     0.000      0.00    0.0    0.0
  XR-4                     0.00           1      0.00     95.00     95.00     0.000      0.00    0.0    0.0
  

  Analysis begun on:  Wed Nov  5 16:31:38 2025
  Analysis ended on:  Wed Nov  5 16:31:40 2025
  Total elapsed time: 00:00:02