
  EPA STORM WATER MANAGEMENT MODEL - VERSION 5.2 (Build 5.2.4)
  PYSWMM TOOLKIT API - VERSION v1.0 (2023-11-27)
  ------------------------------------------------------------

  WARNING 04: minimum elevation drop used for Conduit WS02004404WS02004405
  WARNING 03: negative offset ignored for Link YS02001904YS02001907
  
  ****************
  Analysis Options
  ****************
  Flow Units ............... LPS
  Process Models:
    Rainfall/Runoff ........ YES
    RDII ................... NO
    Snowmelt ............... NO
    Groundwater ............ NO
    Flow Routing ........... YES
    Ponding Allowed ........ NO
    Water Quality .......... NO
  Infiltration Method ...... HORTON
  Flow Routing Method ...... DYNWAVE
  Surcharge Method ......... EXTRAN
  Starting Date ............ 08/28/2015 08:00:00
  Ending Date .............. 08/28/2015 16:00:00
  Antecedent Dry Days ...... 8.0
  Report Time Step ......... 00:01:00
  Wet Time Step ............ 00:01:00
  Dry Time Step ............ 00:01:00
  Routing Time Step ........ 30.00 sec
  Variable Time Step ....... YES
  Maximum Trials ........... 8
  Number of Threads ........ 4
  Head Tolerance ........... 0.001500 m
  
  
  **************************        Volume         Depth
  Runoff Quantity Continuity     hectare-m            mm
  **************************     ---------       -------
  Initial LID Storage ......         0.049         1.488
  Total Precipitation ......         1.545        46.588
  Evaporation Loss .........         0.000         0.000
  Infiltration Loss ........         0.073         2.206
  Surface Runoff ...........         1.121        33.798
  Final Storage ............         0.401        12.082
  Continuity Error (%) .....        -0.020
  
  
  **************************        Volume        Volume
  Flow Routing Continuity        hectare-m      10^6 ltr
  **************************     ---------     ---------
  Dry Weather Inflow .......         0.602         6.020
  Wet Weather Inflow .......         1.121        11.212
  Groundwater Inflow .......         0.000         0.000
  RDII Inflow ..............         0.000         0.000
  External Inflow ..........         0.105         1.045
  External Outflow .........         1.629        16.288
  Flooding Loss ............         0.174         1.739
  Evaporation Loss .........         0.000         0.000
  Exfiltration Loss ........         0.000         0.000
  Initial Stored Volume ....         0.303         3.031
  Final Stored Volume ......         0.334         3.342
  Continuity Error (%) .....        -0.288
  
  
  *************************
  Highest Continuity Errors
  *************************
  Node YS02001583 (-8.06%)
  Node YS02001884 (5.03%)
  Node YS02001774 (1.65%)
  
  
  ***************************
  Time-Step Critical Elements
  ***************************
  Link WS02004404WS02004405 (38.86%)
  Link WS02006238WS02006235 (20.95%)
  Link WS02006252WS02006251 (8.48%)
  Link YS02001791YS02001793 (7.93%)
  Link WS02003066WSF200 (7.83%)
  
  
  ********************************
  Highest Flow Instability Indexes
  ********************************
  Link WS02006113WS02006111 (26)
  Link WS02006238WS02006235 (17)
  Link WS02006229WS02006228 (15)
  Link WS02006111WS02006112 (15)
  Link WS02006256WS02006235 (13)
  
  
  *********************************
  Most Frequent Nonconverging Nodes
  *********************************
  Node CC-1 (14.71%)
  Node CC-2 (14.71%)
  Node JK-1 (14.71%)
  Node JK-2 (14.71%)
  Node WSC (14.71%)
  
  
  *************************
  Routing Time Step Summary
  *************************
  Minimum Time Step           :     0.01 sec
  Average Time Step           :     3.61 sec
  Maximum Time Step           :     7.04 sec
  % of Time in Steady State   :     0.00
  Average Iterations per Step :     3.28
  % of Steps Not Converging   :    14.71
  Time Step Frequencies       :
     30.000 - 13.228 sec      :     0.00 %
     13.228 -  5.833 sec      :    27.97 %
      5.833 -  2.572 sec      :    35.45 %
      2.572 -  1.134 sec      :    22.35 %
      1.134 -  0.500 sec      :    14.23 %
  
  
  ***************************
  Subcatchment Runoff Summary
  ***************************
  
  ------------------------------------------------------------------------------------------------------------------------------
                            Total      Total      Total      Total     Imperv       Perv      Total       Total     Peak  Runoff
                           Precip      Runon       Evap      Infil     Runoff     Runoff     Runoff      Runoff   Runoff   Coeff
  Subcatchment                 mm         mm         mm         mm         mm         mm         mm    10^6 ltr      LPS
  ------------------------------------------------------------------------------------------------------------------------------
  sub60                     46.59       0.00       0.00       1.33      30.71       2.99      33.70        0.44   307.17   0.723
  sub61                     46.59       0.00       0.00       2.03      30.69       4.44      35.13        0.64   445.85   0.754
  sub62                     46.59       0.00       0.00       0.90      32.71       2.03      34.74        0.95   610.91   0.746
  sub63                     46.59       0.00       0.00       3.71      26.28       7.35      33.64        0.76   494.59   0.722
  sub64                     46.59       0.00       0.00       1.78      29.92       3.66      33.58        0.81   488.66   0.721
  sub65                     46.59       0.00       0.00       1.63      32.29       3.34      35.63        0.98   570.66   0.765
  sub66                     46.59       0.00       0.00       4.31      25.40       6.41      31.81        1.48   716.55   0.683
  sub67                     46.59       0.00       0.00       0.90      33.54       2.11      35.65        0.66   479.99   0.765
  sub68                     46.59       0.00       0.00       1.56      29.62       3.41      33.03        0.91   608.55   0.709
  sub69                     46.59       0.00       0.00       1.40      31.30       4.14      35.44        1.31   742.06   0.761
  sub70                     46.59       0.00       0.00       4.69      25.07       8.28      33.35        0.96   415.09   0.716
  sub71                     46.59       0.00       0.00       0.83      29.71       1.83      31.54        0.82   498.05   0.677
  sub72                     46.59       0.00       0.00       0.79      32.08       1.70      33.79        0.46   254.63   0.725
  

  ***********************
  LID Performance Summary
  ***********************

  --------------------------------------------------------------------------------------------------------------------
                                         Total      Evap     Infil   Surface    Drain    Initial     Final  Continuity
                                        Inflow      Loss      Loss   Outflow   Outflow   Storage   Storage       Error
  Subcatchment      LID Control             mm        mm        mm        mm        mm        mm        mm           %
  --------------------------------------------------------------------------------------------------------------------
  sub60             GreenRoof            46.59      0.00      0.00      0.00      0.00      7.05     53.64       -0.01
  sub61             GreenRoof            46.59      0.00      0.00      0.00      0.00      7.05     53.64       -0.01
  sub62             GreenRoof            46.59      0.00      0.00      0.00      0.00      7.05     53.64       -0.01
  sub63             GreenRoof            46.59      0.00      0.00      0.00      0.00      7.05     53.64       -0.01
  sub64             GreenRoof            46.59      0.00      0.00      0.00      0.00      7.05     53.64       -0.01
  sub65             GreenRoof            46.59      0.00      0.00      0.00      0.00      7.05     53.64       -0.01
  sub66             GreenRoof            46.59      0.00      0.00      0.00      0.00      7.05     53.64       -0.01
  sub67             GreenRoof            46.59      0.00      0.00      0.00      0.00      7.05     53.64       -0.01
  sub68             GreenRoof            46.59      0.00      0.00      0.00      0.00      7.05     53.64       -0.01
  sub69             GreenRoof            46.59      0.00      0.00      0.00      0.00      7.05     53.64       -0.01
  sub70             GreenRoof            46.59      0.00      0.00      0.00      0.00      7.05     53.64       -0.01
  sub71             GreenRoof            46.59      0.00      0.00      0.00      0.00      7.05     53.64       -0.01
  sub72             GreenRoof            46.59      0.00      0.00      0.00      0.00      7.05     53.64       -0.01
  
  ******************
  Node Depth Summary
  ******************
  
  ---------------------------------------------------------------------------------
                                 Average  Maximum  Maximum  Time of Max    Reported
                                   Depth    Depth      HGL   Occurrence   Max Depth
  Node                 Type       Meters   Meters   Meters  days hr:min      Meters
  ---------------------------------------------------------------------------------
  WS02001211           JUNCTION     0.60     0.64     5.48     0  02:39        0.64
  WS02001212           JUNCTION     0.33     0.38     5.45     0  02:36        0.38
  WS02001213           JUNCTION     0.52     0.65     5.41     0  02:36        0.65
  WS02003059           JUNCTION     0.58     0.72     5.40     0  02:35        0.72
  WS02003060           JUNCTION     0.29     0.45     5.38     0  02:34        0.45
  WS02003066           JUNCTION     0.15     0.30     5.85     0  02:29        0.30
  WS02003067           JUNCTION     0.41     0.70     6.02     0  02:28        0.70
  WS02003069           JUNCTION     0.32     0.51     5.10     0  02:35        0.51
  WS02003072           JUNCTION     0.39     0.58     4.95     0  02:36        0.58
  WS02003073           JUNCTION     0.23     0.35     4.41     0  02:37        0.35
  WS02004138           JUNCTION     0.13     0.14     7.39     0  00:29        0.14
  WS02004139           JUNCTION     0.53     0.58     5.49     0  02:38        0.58
  WS02004401           JUNCTION     0.50     0.85     6.85     0  02:20        0.85
  WS02004402           JUNCTION     0.53     0.88     6.84     0  02:20        0.88
  WS02004403           JUNCTION     0.55     0.89     6.82     0  02:20        0.89
  WS02004404           JUNCTION     0.63     0.96     6.81     0  02:20        0.96
  WS02004405           JUNCTION     0.63     0.96     6.81     0  02:20        0.96
  WS02004406           JUNCTION     0.64     0.96     6.79     0  02:21        0.96
  WS02004407           JUNCTION     0.13     0.30     6.61     0  02:21        0.30
  WS02004409           JUNCTION     0.29     0.67     6.44     0  02:30        0.67
  WS02004410           JUNCTION     0.32     0.68     6.40     0  02:31        0.68
  WS02004411           JUNCTION     0.34     0.69     6.37     0  02:28        0.69
  WS02004412           JUNCTION     0.37     0.70     6.34     0  02:31        0.70
  WS02004413           JUNCTION     0.52     0.86     6.33     0  02:28        0.86
  WS02006109           JUNCTION     0.55     1.06     7.67     0  03:09        0.98
  WS02006110           JUNCTION     0.56     1.03     7.62     0  03:09        0.93
  WS02006111           JUNCTION     0.13     0.29     6.99     0  02:54        0.29
  WS02006112           JUNCTION     0.64     1.06     6.95     0  02:59        1.06
  WS02006113           JUNCTION     0.20     0.46     7.35     0  02:54        0.45
  WS02006115           JUNCTION     0.38     0.75     6.89     0  02:19        0.75
  WS02006116           JUNCTION     0.47     0.83     6.87     0  02:20        0.83
  WS02006228           JUNCTION     0.54     1.08     7.73     0  02:58        1.03
  WS02006229           JUNCTION     0.51     1.10     7.79     0  03:09        1.02
  WS02006230           JUNCTION     0.50     1.24     7.99     0  03:09        1.12
  WS02006231           JUNCTION     0.32     0.96     8.08     0  03:03        0.87
  WS02006232           JUNCTION     0.45     1.13     8.17     0  03:03        1.06
  WS02006234           JUNCTION     0.37     1.18     8.33     0  03:13        1.11
  WS02006235           JUNCTION     0.41     1.24     8.40     0  02:58        1.19
  WS02006238           JUNCTION     0.44     1.27     8.42     0  02:58        1.22
  WS02006239           JUNCTION     0.39     1.26     8.47     0  02:58        1.19
  WS02006240           JUNCTION     0.37     1.21     8.51     0  02:58        1.16
  WS02006242           JUNCTION     0.42     1.28     8.55     0  02:58        1.23
  WS02006243           JUNCTION     0.35     1.19     8.61     0  02:58        1.19
  WS02006245           JUNCTION     0.35     1.23     8.72     0  02:58        1.23
  WS02006247           JUNCTION     0.36     1.23     8.73     0  02:58        1.23
  WS02006248           JUNCTION     0.34     1.10     8.69     0  02:03        1.10
  WS02006249           JUNCTION     0.36     1.09     8.69     0  02:03        1.09
  WS02006251           JUNCTION     0.36     1.46     9.13     0  02:58        1.46
  WS02006252           JUNCTION     0.24     1.50     9.74     0  00:00        1.02
  WS02006256           JUNCTION     1.03     2.35     9.28     0  00:00        2.35
  WSF200               JUNCTION     0.12     0.31     5.54     0  02:34        0.31
  YS02001580           JUNCTION     0.09     1.05     9.59     0  01:59        0.77
  YS02001583           JUNCTION     0.12     1.14     9.64     0  01:59        0.81
  YS02001586           JUNCTION     0.20     1.13     9.30     0  01:58        1.13
  YS02001590           JUNCTION     0.31     1.40     9.26     0  01:57        1.37
  YS02001593           JUNCTION     0.24     1.46     9.32     0  01:57        1.28
  YS02001596           JUNCTION     0.34     1.69     9.11     0  01:58        1.65
  YS02001600           JUNCTION     0.42     1.87     9.00     0  01:57        1.86
  YS02001601           JUNCTION     0.61     2.06     8.90     0  01:57        2.06
  YS02001602           JUNCTION     0.52     1.87     8.77     0  01:58        1.87
  YS02001605           JUNCTION     0.47     1.78     8.68     0  01:58        1.78
  YS02001607           JUNCTION     0.45     1.68     8.52     0  01:58        1.65
  YS02001610           JUNCTION     0.49     1.68     8.48     0  01:58        1.68
  YS02001613           JUNCTION     0.45     1.69     8.53     0  01:58        1.64
  YS02001616           JUNCTION     0.38     1.61     8.52     0  01:58        1.58
  YS02001619           JUNCTION     0.36     1.61     8.54     0  01:58        1.57
  YS02001622           JUNCTION     0.35     1.62     8.52     0  01:58        1.55
  YS02001625           JUNCTION     0.60     1.78     8.38     0  01:58        1.78
  YS02001629           JUNCTION     0.48     1.85     8.40     0  01:58        1.85
  YS02001633           JUNCTION     0.55     2.00     8.46     0  02:02        1.99
  YS02001641           JUNCTION     0.52     1.96     8.39     0  02:03        1.89
  YS02001644           JUNCTION     0.51     1.92     8.35     0  02:02        1.88
  YS02001647           JUNCTION     0.30     1.72     8.33     0  02:02        1.61
  YS02001649           JUNCTION     0.34     1.87     8.26     0  02:02        1.74
  YS02001652           JUNCTION     0.23     1.75     8.34     0  02:02        1.54
  YS02001655           JUNCTION     0.16     1.75     8.60     0  02:02        1.32
  YS02001658           JUNCTION     0.11     1.69     8.83     0  02:02        1.06
  YS02001661           JUNCTION     0.14     0.88     8.28     0  02:03        0.81
  YS02001664           JUNCTION     0.06     0.27     8.19     0  02:02        0.27
  YS02001745           JUNCTION     0.06     0.64     8.15     0  02:03        0.53
  YS02001748           JUNCTION     0.10     1.28     8.36     0  02:03        1.08
  YS02001751           JUNCTION     0.13     1.38     8.26     0  02:02        1.24
  YS02001754           JUNCTION     0.19     1.52     8.13     0  02:03        1.46
  YS02001757           JUNCTION     0.34     1.81     8.07     0  02:03        1.76
  YS02001759           JUNCTION     0.29     1.77     8.14     0  02:03        1.71
  YS02001762           JUNCTION     0.28     1.76     8.16     0  02:03        1.69
  YS02001765           JUNCTION     0.26     1.74     8.19     0  02:03        1.66
  YS02001767           JUNCTION     0.26     1.78     8.26     0  02:02        1.63
  YS02001770           JUNCTION     0.27     1.87     8.37     0  02:02        1.66
  YS02001774           JUNCTION     0.33     1.95     8.37     0  02:02        1.73
  YS02001779           JUNCTION     0.17     1.68     8.37     0  02:01        1.47
  YS02001783           JUNCTION     0.26     1.32     7.47     0  02:01        1.20
  YS02001784           JUNCTION     0.27     1.17     7.24     0  02:01        1.10
  YS02001786           JUNCTION     0.23     0.91     6.94     0  02:01        0.86
  YS02001788           JUNCTION     0.17     0.62     6.60     0  02:01        0.62
  YS02001790           JUNCTION     0.20     0.72     6.36     0  02:05        0.71
  YS02001791           JUNCTION     0.12     0.43     5.90     0  02:02        0.43
  YS02001793           JUNCTION     0.07     0.29     5.13     0  02:04        0.27
  YS02001882           JUNCTION     0.31     1.76     8.47     0  02:00        1.59
  YS02001884           JUNCTION     0.40     1.83     8.45     0  02:00        1.69
  YS02001887           JUNCTION     0.47     1.86     8.40     0  02:00        1.76
  YS02001890           JUNCTION     0.50     1.81     8.32     0  02:00        1.79
  YS02001895           JUNCTION     0.28     1.58     8.33     0  02:01        1.55
  YS02001898           JUNCTION     0.29     1.58     8.32     0  02:01        1.55
  YS02001901           JUNCTION     0.40     1.69     8.29     0  02:01        1.67
  YS02001904           JUNCTION     0.38     1.64     8.27     0  02:02        1.64
  YS02001907           JUNCTION     0.69     1.96     8.25     0  02:01        1.96
  YS02001910           JUNCTION     0.49     1.96     8.46     0  02:02        1.79
  YS02001915           JUNCTION     0.31     1.90     8.62     0  02:02        1.64
  YS02001918           JUNCTION     0.16     1.81     8.88     0  02:02        1.30
  YS02001920           JUNCTION     0.24     2.14     9.15     0  02:02        1.38
  YS02001923           JUNCTION     0.11     2.03     9.29     0  02:02        1.16
  YS02001926           JUNCTION     0.15     1.90     9.35     0  02:02        0.96
  YS02001929           JUNCTION     0.08     1.78     9.47     0  02:02        0.93
  YS02006553           JUNCTION     0.69     1.99     8.27     0  02:01        1.96
  YS02006556           JUNCTION     0.67     1.98     8.29     0  02:01        1.92
  YS02006558           JUNCTION     0.71     2.02     8.29     0  02:01        1.95
  YS02006561           JUNCTION     0.15     1.00     7.66     0  02:01        0.87
  YS02163301           JUNCTION     0.50     1.92     8.44     0  02:00        1.91
  YS02163601           JUNCTION     0.58     2.03     8.43     0  02:02        1.97
  YS02164001           JUNCTION     0.51     1.96     8.42     0  02:03        1.89
  CC-1                 OUTFALL      0.00     0.00     0.00     0  00:00        0.00
  CC-2                 OUTFALL      0.00     0.00     0.00     0  00:00        0.00
  JK-1                 OUTFALL      0.00     0.00     0.00     0  00:00        0.00
  JK-2                 OUTFALL      0.00     0.00     0.00     0  00:00        0.00
  WSC                  OUTFALL      0.23     0.35     1.02     0  02:37        0.35
  CC-storage           STORAGE      0.77     1.48     6.98     0  02:20        1.48
  JK-storage           STORAGE      3.04     4.24     5.04     0  02:10        4.23
  XR-storage           STORAGE      7.84     9.26     7.26     0  08:00        9.26
  
  
  *******************
  Node Inflow Summary
  *******************
  
  -------------------------------------------------------------------------------------------------
                                  Maximum  Maximum                  Lateral       Total        Flow
                                  Lateral    Total  Time of Max      Inflow      Inflow     Balance
                                   Inflow   Inflow   Occurrence      Volume      Volume       Error
  Node                 Type           LPS      LPS  days hr:min    10^6 ltr    10^6 ltr     Percent
  -------------------------------------------------------------------------------------------------
  WS02001211           JUNCTION      7.35   200.51     0  02:48       0.212        5.44       0.611
  WS02001212           JUNCTION      0.00   202.70     0  02:48           0        5.41       0.290
  WS02001213           JUNCTION      0.00   204.52     0  03:25           0        5.39       0.333
  WS02003059           JUNCTION      0.00   208.91     0  03:26           0        5.38       0.596
  WS02003060           JUNCTION     16.53   751.02     0  02:34       0.476        8.75       0.167
  WS02003066           JUNCTION      0.00   536.58     0  02:29           0        2.93       0.051
  WS02003067           JUNCTION      0.00   536.52     0  02:28           0        2.93       0.148
  WS02003069           JUNCTION      0.32   750.90     0  02:35     0.00922        8.74       0.177
  WS02003072           JUNCTION      0.00   750.74     0  02:35           0        8.72       0.240
  WS02003073           JUNCTION      1.82   752.50     0  02:36      0.0524        8.75       0.249
  WS02004138           JUNCTION      0.00   380.00     0  00:00           0        5.25       0.053
  WS02004139           JUNCTION      0.32   191.16     0  00:29     0.00924        5.26       0.509
  WS02004401           JUNCTION      0.00   539.06     0  02:20           0        3.03       0.341
  WS02004402           JUNCTION      0.00   538.35     0  02:20           0        3.02       0.347
  WS02004403           JUNCTION      0.00   538.22     0  02:20           0        3.01       0.338
  WS02004404           JUNCTION      0.16   537.85     0  02:20     0.00467        3.01       0.290
  WS02004405           JUNCTION      0.04   537.91     0  02:20      0.0011           3       0.413
  WS02004406           JUNCTION      0.00   538.23     0  02:20           0        2.99       0.703
  WS02004407           JUNCTION      0.00   537.50     0  02:21           0        2.97       0.042
  WS02004409           JUNCTION      0.00   537.18     0  02:21           0        2.97       0.101
  WS02004410           JUNCTION      0.00   536.92     0  02:31           0        2.96       0.160
  WS02004411           JUNCTION      0.00   536.84     0  02:31           0        2.96       0.201
  WS02004412           JUNCTION      0.00   536.68     0  02:28           0        2.95       0.267
  WS02004413           JUNCTION      0.00   536.69     0  02:28           0        2.95       0.469
  WS02006109           JUNCTION      1.23   550.82     0  02:58      0.0354        3.08       0.267
  WS02006110           JUNCTION      0.00   552.06     0  02:58           0        3.07       0.211
  WS02006111           JUNCTION      0.00   562.95     0  02:54           0        3.06       0.030
  WS02006112           JUNCTION      0.00   543.09     0  02:54           0        3.06       0.590
  WS02006113           JUNCTION      0.00   559.40     0  02:04           0        3.07       0.053
  WS02006115           JUNCTION      0.00   548.06     0  03:05           0        3.04       0.218
  WS02006116           JUNCTION      0.00   540.15     0  02:19           0        3.04       0.111
  WS02006228           JUNCTION      0.00   549.48     0  02:58           0        3.05       0.118
  WS02006229           JUNCTION      0.00   549.22     0  02:58           0        3.05       0.176
  WS02006230           JUNCTION     10.28   582.75     0  03:08       0.296        3.06       0.183
  WS02006231           JUNCTION      0.00   569.75     0  02:52           0        2.76      -0.199
  WS02006232           JUNCTION      0.00   568.72     0  02:52           0        2.77       0.473
  WS02006234           JUNCTION      0.00   564.76     0  02:52           0        2.76      -0.370
  WS02006235           JUNCTION      0.00   559.08     0  03:03           0        2.86       0.382
  WS02006238           JUNCTION      0.00   420.21     0  02:40           0        1.99      -0.161
  WS02006239           JUNCTION      0.00   420.45     0  02:40           0        1.94      -0.039
  WS02006240           JUNCTION      0.00   418.32     0  02:40           0        1.89      -0.073
  WS02006242           JUNCTION      0.00   418.52     0  02:40           0        1.86      -0.158
  WS02006243           JUNCTION      0.00   418.13     0  02:40           0        1.84      -0.033
  WS02006245           JUNCTION      0.00   416.98     0  02:40           0        1.85       0.546
  WS02006247           JUNCTION      0.00   416.92     0  03:05           0        1.84      -0.041
  WS02006248           JUNCTION      0.00   417.12     0  02:40           0        1.84      -0.236
  WS02006249           JUNCTION      0.00   458.97     0  00:00           0        2.05       0.799
  WS02006251           JUNCTION      0.08   407.80     0  02:58     0.00222        2.05       0.039
  WS02006252           JUNCTION      0.00   400.00     0  00:00           0        2.04      -0.407
  WS02006256           JUNCTION      0.00   300.00     0  00:00           0        1.29      -0.839
  WSF200               JUNCTION      0.00   536.61     0  02:29           0        2.93       0.025
  YS02001580           JUNCTION      0.00   136.88     0  01:58           0     0.00446       2.424
  YS02001583           JUNCTION      0.00   229.78     0  01:59           0      0.0151      -7.461
  YS02001586           JUNCTION    415.09   415.29     0  02:04       0.964       0.975       0.147
  YS02001590           JUNCTION      0.00   318.05     0  02:04           0       0.914      -0.044
  YS02001593           JUNCTION      0.00   317.94     0  02:02           0       0.914      -0.003
  YS02001596           JUNCTION      0.00   317.90     0  02:09           0       0.914      -0.010
  YS02001600           JUNCTION      0.00   317.95     0  02:02           0       0.914      -0.004
  YS02001601           JUNCTION    742.06  1059.40     0  02:02        1.31        2.23       0.015
  YS02001602           JUNCTION      0.00   545.94     0  01:58           0        1.71       0.013
  YS02001605           JUNCTION      0.00   546.15     0  01:58           0        1.65       0.017
  YS02001607           JUNCTION      0.00   546.37     0  01:58           0        1.65       0.103
  YS02001610           JUNCTION      0.00   544.24     0  01:58           0        1.65       0.120
  YS02001613           JUNCTION      0.00   550.84     0  01:58           0        1.52       0.089
  YS02001616           JUNCTION      0.00   565.63     0  01:58           0        1.52       0.022
  YS02001619           JUNCTION    716.55   971.05     0  01:58        1.48        3.01      -0.008
  YS02001622           JUNCTION      0.00   973.70     0  01:58           0           3      -0.012
  YS02001625           JUNCTION      0.00   955.21     0  01:58           0           3       0.283
  YS02001629           JUNCTION      0.00   955.35     0  01:58           0        2.75       0.020
  YS02001633           JUNCTION    570.86  1433.04     0  02:00       0.987        3.74       0.087
  YS02001641           JUNCTION      0.00  1429.46     0  02:00           0        3.74       0.068
  YS02001644           JUNCTION    488.69  1866.03     0  02:00       0.808        4.54       0.067
  YS02001647           JUNCTION      0.00  1865.89     0  02:00           0        4.53       0.009
  YS02001649           JUNCTION      0.00  2111.05     0  02:00           0         5.3       0.004
  YS02001652           JUNCTION      0.00   591.52     0  02:04           0       0.768      -0.111
  YS02001655           JUNCTION      0.15   591.99     0  02:04     0.00443       0.768      -0.062
  YS02001658           JUNCTION      0.00   666.91     0  02:02           0       0.763      -0.021
  YS02001661           JUNCTION      0.00   494.13     0  02:02           0       0.764       0.051
  YS02001664           JUNCTION    494.59   494.59     0  02:02       0.764       0.764      -0.015
  YS02001745           JUNCTION    307.17   337.70     0  02:02       0.443       0.443       0.345
  YS02001748           JUNCTION      0.04   583.79     0  02:03      0.0013       0.444      -0.605
  YS02001751           JUNCTION      0.01   435.66     0  02:06    0.000317       0.453       0.034
  YS02001754           JUNCTION      0.26   365.42     0  02:03     0.00749        0.47      -0.254
  YS02001757           JUNCTION      0.00  3076.37     0  02:03           0        7.38       0.022
  YS02001759           JUNCTION    445.89  1105.77     0  02:01       0.646        1.62      -0.017
  YS02001762           JUNCTION      0.00   652.56     0  02:01           0       0.971      -0.018
  YS02001765           JUNCTION      0.00   645.83     0  02:01           0       0.969       0.020
  YS02001767           JUNCTION      0.54   640.49     0  02:01      0.0154       0.968      -0.004
  YS02001770           JUNCTION    611.06   634.38     0  02:01       0.956       0.999      -0.043
  YS02001774           JUNCTION      0.00   482.48     0  02:01           0      0.0645       1.675
  YS02001779           JUNCTION      0.01   491.70     0  02:01    0.000144      0.0214      -3.766
  YS02001783           JUNCTION      0.00  1148.74     0  02:02           0        2.74       0.009
  YS02001784           JUNCTION      1.06  1149.91     0  02:03      0.0305        2.77       0.017
  YS02001786           JUNCTION      0.06  1149.55     0  02:03     0.00162        2.77       0.023
  YS02001788           JUNCTION      0.07  1149.96     0  02:03     0.00204        2.77       0.010
  YS02001790           JUNCTION      0.15  1166.20     0  02:02     0.00446        2.78       0.026
  YS02001791           JUNCTION      0.00  1274.51     0  02:05           0        2.78      -0.019
  YS02001793           JUNCTION      0.00  1230.12     0  02:04           0        2.78       0.008
  YS02001882           JUNCTION      0.00    72.44     0  01:59           0      0.0126       4.440
  YS02001884           JUNCTION      0.00   128.45     0  01:59           0      0.0486       5.297
  YS02001887           JUNCTION    480.44   492.81     0  02:01       0.676        0.71       0.620
  YS02001890           JUNCTION      0.00   499.04     0  02:01           0       0.669       0.752
  YS02001895           JUNCTION      0.00   504.56     0  02:01           0       0.663       0.226
  YS02001898           JUNCTION      0.00   509.25     0  02:01           0       0.662       0.016
  YS02001901           JUNCTION      0.00   515.58     0  02:01           0       0.664       0.495
  YS02001904           JUNCTION      0.00   518.45     0  02:01           0       0.669       0.413
  YS02001907           JUNCTION      0.00  1406.63     0  02:02           0        2.03       0.865
  YS02001910           JUNCTION      0.00   957.07     0  02:02           0        1.37       0.529
  YS02001915           JUNCTION    498.07   956.55     0  02:02       0.826        1.42       0.096
  YS02001918           JUNCTION      0.00   497.40     0  02:00           0       0.623       0.007
  YS02001920           JUNCTION      2.87   456.35     0  02:02      0.0827       0.602       0.120
  YS02001923           JUNCTION      0.04   526.80     0  02:01     0.00109       0.503      -0.227
  YS02001926           JUNCTION      0.05   851.57     0  02:02      0.0015       0.483      -0.162
  YS02001929           JUNCTION    254.63   616.66     0  02:01       0.465       0.469      -0.056
  YS02006553           JUNCTION      0.00   793.11     0  02:11           0        1.85       0.626
  YS02006556           JUNCTION      0.00   792.49     0  02:11           0        1.86       0.417
  YS02006558           JUNCTION    609.43  1156.26     0  02:01       0.934        2.77       0.127
  YS02006561           JUNCTION      0.00  1155.43     0  02:01           0        2.74      -0.006
  YS02163301           JUNCTION      0.00   934.29     0  02:00           0        2.75       0.045
  YS02163601           JUNCTION      0.11  1432.36     0  02:00     0.00317        3.74       0.126
  YS02164001           JUNCTION      0.00  1431.65     0  02:00           0        3.74       0.052
  CC-1                 OUTFALL       0.00   683.00     0  00:00           0        3.16       0.000
  CC-2                 OUTFALL       0.00   683.00     0  00:00           0        2.92       0.000
  JK-1                 OUTFALL       0.00  1000.00     0  00:00           0        1.43       0.000
  JK-2                 OUTFALL       0.00  1000.00     0  00:00           0      0.0484       0.000
  WSC                  OUTFALL       0.00   752.45     0  02:37           0        8.73       0.000
  CC-storage           STORAGE       0.00  3078.31     0  02:03           0         9.6      -0.262
  JK-storage           STORAGE       0.00  1222.88     0  02:02           0        2.93       0.068
  XR-storage           STORAGE     200.00   200.00     0  00:00        5.76        6.36       0.001
  
  
  **********************
  Node Surcharge Summary
  **********************
  
  Surcharging occurs when water rises above the top of the highest conduit.
  ---------------------------------------------------------------------
                                               Max. Height   Min. Depth
                                   Hours       Above Crown    Below Rim
  Node                 Type      Surcharged         Meters       Meters
  ---------------------------------------------------------------------
  WS02006109           JUNCTION        1.22          0.237        1.583
  WS02006110           JUNCTION        0.68          0.122        1.728
  WS02006112           JUNCTION        0.62          0.065        1.615
  WS02006228           JUNCTION        1.21          0.248        1.952
  WS02006229           JUNCTION        1.21          0.300        2.150
  WS02006230           JUNCTION        0.69          0.164        1.406
  WS02006231           JUNCTION        0.75          0.249        1.281
  WS02006232           JUNCTION        1.22          0.435        1.045
  WS02006234           JUNCTION        1.01          0.457        0.783
  WS02006235           JUNCTION        1.20          0.528        0.762
  WS02006238           JUNCTION        1.22          0.552        0.878
  WS02006239           JUNCTION        1.20          0.517        0.773
  WS02006240           JUNCTION        1.19          0.503        0.887
  WS02006242           JUNCTION        1.20          0.554        0.266
  WS02006243           JUNCTION        1.18          0.483        0.287
  WS02006245           JUNCTION        1.17          0.522        0.328
  WS02006247           JUNCTION        1.18          0.524        0.236
  WS02006248           JUNCTION        1.17          0.380        0.000
  WS02006249           JUNCTION        1.17          0.390        0.000
  WS02006251           JUNCTION        0.79          0.428        0.752
  WS02006252           JUNCTION        1.35          1.100        0.000
  WS02006256           JUNCTION        3.94          2.050        0.000
  YS02001580           JUNCTION        0.31          0.450        0.000
  YS02001583           JUNCTION        0.32          0.500        0.000
  YS02001586           JUNCTION        0.44          0.510        0.000
  YS02001590           JUNCTION        0.49          0.750        0.000
  YS02001593           JUNCTION        0.50          0.840        0.000
  YS02001596           JUNCTION        0.59          0.958        0.112
  YS02001600           JUNCTION        0.70          1.190        0.000
  YS02001601           JUNCTION        1.04          1.440        0.000
  YS02001602           JUNCTION        0.91          1.270        0.000
  YS02001605           JUNCTION        0.86          1.180        0.000
  YS02001607           JUNCTION        0.47          0.676        0.004
  YS02001610           JUNCTION        0.48          0.680        0.000
  YS02001613           JUNCTION        0.46          0.687        0.013
  YS02001616           JUNCTION        0.42          0.610        0.000
  YS02001619           JUNCTION        0.41          0.610        0.000
  YS02001622           JUNCTION        0.41          0.620        0.000
  YS02001625           JUNCTION        0.56          0.780        0.000
  YS02001629           JUNCTION        0.37          0.470        0.000
  YS02001633           JUNCTION        0.57          0.985        0.075
  YS02001641           JUNCTION        0.52          0.956        0.144
  YS02001644           JUNCTION        0.49          0.920        0.000
  YS02001647           JUNCTION        0.32          0.724        0.176
  YS02001649           JUNCTION        0.41          0.868        0.182
  YS02001652           JUNCTION        0.26          0.717        0.413
  YS02001655           JUNCTION        0.14          0.748        0.452
  YS02001658           JUNCTION        0.02          0.685        0.615
  YS02001748           JUNCTION        0.01          0.200        0.990
  YS02001751           JUNCTION        0.05          0.378        0.822
  YS02001754           JUNCTION        0.17          0.471        0.679
  YS02001757           JUNCTION        0.45          0.812        0.398
  YS02001759           JUNCTION        0.37          0.771        0.439
  YS02001762           JUNCTION        0.34          0.761        0.389
  YS02001765           JUNCTION        0.30          0.736        0.364
  YS02001767           JUNCTION        0.28          0.776        0.254
  YS02001770           JUNCTION        0.26          0.842        0.078
  YS02001774           JUNCTION        0.33          0.951        0.099
  YS02001779           JUNCTION        0.17          0.680        0.000
  YS02001783           JUNCTION        0.30          0.524        1.076
  YS02001784           JUNCTION        0.28          0.374        1.116
  YS02001786           JUNCTION        0.20          0.112        1.318
  YS02001882           JUNCTION        0.26          0.759        0.071
  YS02001884           JUNCTION        0.27          0.774        0.096
  YS02001887           JUNCTION        0.29          0.812        0.138
  YS02001890           JUNCTION        0.30          0.760        0.000
  YS02001895           JUNCTION        0.25          0.580        0.170
  YS02001898           JUNCTION        0.24          0.555        0.185
  YS02001901           JUNCTION        0.28          0.686        0.184
  YS02001904           JUNCTION        0.27          0.639        0.211
  YS02001907           JUNCTION        0.46          0.950        0.000
  YS02001910           JUNCTION        0.32          0.957        0.143
  YS02001915           JUNCTION        0.25          0.899        0.101
  YS02001918           JUNCTION        0.18          0.810        0.000
  YS02001920           JUNCTION        0.19          1.140        0.000
  YS02001923           JUNCTION        0.01          0.820        0.000
  YS02001926           JUNCTION        0.01          0.900        0.000
  YS02001929           JUNCTION        0.01          0.780        0.000
  YS02006553           JUNCTION        0.47          0.987        0.203
  YS02006556           JUNCTION        0.39          0.939        0.411
  YS02006558           JUNCTION        0.39          0.922        0.478
  YS02006561           JUNCTION        0.15          0.198        0.952
  YS02163301           JUNCTION        0.56          0.920        0.110
  YS02163601           JUNCTION        0.59          1.035        0.045
  YS02164001           JUNCTION        0.52          0.957        0.143
  
  
  *********************
  Node Flooding Summary
  *********************
  
  Flooding refers to all water that overflows a node, whether it ponds or not.
  --------------------------------------------------------------------------
                                                             Total   Maximum
                                 Maximum   Time of Max       Flood    Ponded
                        Hours       Rate    Occurrence      Volume     Depth
  Node                 Flooded       LPS   days hr:min    10^6 ltr    Meters
  --------------------------------------------------------------------------
  WS02006248              0.01     15.84      0  02:03       0.000     0.000
  WS02006249              0.77    100.70      0  02:03       0.190     0.000
  WS02006252              0.01    245.63      0  00:00       0.000     0.000
  WS02006256              1.19    293.19      0  00:00       0.372     0.000
  YS02001580              0.01     97.19      0  01:59       0.000     0.000
  YS02001583              0.01    196.89      0  01:59       0.000     0.000
  YS02001586              0.22    122.10      0  01:59       0.049     0.000
  YS02001590              0.01     71.94      0  01:57       0.000     0.000
  YS02001593              0.01     14.29      0  01:57       0.000     0.000
  YS02001600              0.01      5.87      0  01:57       0.000     0.000
  YS02001601              0.38    661.51      0  02:03       0.517     0.000
  YS02001602              0.30     61.94      0  02:13       0.057     0.000
  YS02001605              0.01      2.35      0  01:58       0.000     0.000
  YS02001610              0.24    224.55      0  02:04       0.124     0.000
  YS02001616              0.01     10.75      0  01:58       0.000     0.000
  YS02001619              0.01     44.57      0  01:58       0.000     0.000
  YS02001622              0.01    283.42      0  01:58       0.001     0.000
  YS02001625              0.22    686.06      0  02:04       0.242     0.000
  YS02001629              0.03    286.74      0  01:58       0.002     0.000
  YS02001644              0.01     21.21      0  02:02       0.000     0.000
  YS02001779              0.01    430.02      0  02:01       0.004     0.000
  YS02001890              0.01     44.49      0  02:01       0.001     0.000
  YS02001907              0.13    856.04      0  02:02       0.172     0.000
  YS02001918              0.01    157.39      0  02:02       0.002     0.000
  YS02001920              0.01     52.96      0  02:02       0.000     0.000
  YS02001923              0.01    271.19      0  02:02       0.001     0.000
  YS02001926              0.01    644.11      0  02:02       0.002     0.000
  YS02001929              0.01    253.18      0  02:02       0.001     0.000
  
  
  **********************
  Storage Volume Summary
  **********************
  
  ------------------------------------------------------------------------------------------------
                         Average    Avg   Evap  Exfil     Maximum    Max    Time of Max    Maximum
                          Volume   Pcnt   Pcnt   Pcnt      Volume   Pcnt     Occurrence    Outflow
  Storage Unit           1000 m³   Full   Loss   Loss     1000 m³   Full    days hr:min        LPS
  ------------------------------------------------------------------------------------------------
  CC-storage               2.144   33.4    0.0    0.0       4.122   64.3       0  02:20    1783.53
  JK-storage               0.153   52.4    0.0    0.0       0.213   73.0       0  02:10    2300.00
  XR-storage               0.941   65.4    0.0    0.0       1.111   77.2       0  08:00     380.00
  
  
  ***********************
  Outfall Loading Summary
  ***********************
  
  -----------------------------------------------------------
                         Flow       Avg       Max       Total
                         Freq      Flow      Flow      Volume
  Outfall Node           Pcnt       LPS       LPS    10^6 ltr
  -----------------------------------------------------------
  CC-1                  28.12    683.00    683.00       3.158
  CC-2                  25.77    683.00    683.00       2.924
  JK-1                  13.08   1000.00   1000.00       1.425
  JK-2                   0.26   1000.00   1000.00       0.048
  WSC                   99.92    357.54    752.45       8.731
  -----------------------------------------------------------
  System                33.43   3723.54   3366.23      16.288
  
  
  ********************
  Link Flow Summary
  ********************
  
  -----------------------------------------------------------------------------
                                 Maximum  Time of Max   Maximum    Max/    Max/
                                  |Flow|   Occurrence   |Veloc|    Full    Full
  Link                 Type          LPS  days hr:min     m/sec    Flow   Depth
  -----------------------------------------------------------------------------
  1                    CONDUIT    752.45     0  02:37      3.08    0.26    0.35
  WS02001211WS02001212 CONDUIT    202.70     0  02:48      0.54    0.15    0.51
  WS02001212WS02001213 CONDUIT    204.52     0  03:25      1.04    0.32    0.36
  WS02001213WS02003059 CONDUIT    208.91     0  03:26      0.47    0.34    0.67
  WS02003059WS02003060 CONDUIT    215.43     0  03:23      0.67    0.14    0.58
  WS02003060WS02003069 CONDUIT    750.58     0  02:35      1.77    0.29    0.40
  WS02003066WSF200     CONDUIT    536.61     0  02:29      2.74    0.09    0.23
  WS02003067WS02003066 CONDUIT    536.58     0  02:29      1.21    0.17    0.42
  WS02003069WS02003072 CONDUIT    750.74     0  02:35      1.51    0.36    0.45
  WS02003072WS02003073 CONDUIT    750.68     0  02:36      1.60    1.62    0.43
  WS02004138WS02004139 CONDUIT    190.84     0  00:29      2.17    0.04    0.33
  WS02004139WS02001211 CONDUIT    193.16     0  02:48      0.54    0.24    0.47
  WS02004401WS02004402 CONDUIT    538.35     0  02:20      0.97    0.65    0.86
  WS02004402WS02004403 CONDUIT    538.22     0  02:20      0.97    0.77    0.88
  WS02004403WS02004404 CONDUIT    537.69     0  02:20      0.92    0.39    0.93
  WS02004404WS02004405 CONDUIT    537.87     0  02:20      1.08    5.27    0.96
  WS02004405WS02004406 CONDUIT    538.23     0  02:20      0.99    1.06    0.96
  WS02004406WS02004407 CONDUIT    537.50     0  02:21      1.04    0.24    0.63
  WS02004407WS02004409 CONDUIT    537.18     0  02:21      1.56    0.19    0.48
  WS02004409WS02004410 CONDUIT    536.92     0  02:31      1.05    0.69    0.67
  WS02004410WS02004411 CONDUIT    536.84     0  02:31      1.00    0.73    0.69
  WS02004411WS02004412 CONDUIT    536.68     0  02:28      0.92    0.76    0.69
  WS02004412WS02004413 CONDUIT    536.69     0  02:28      0.82    0.36    0.78
  WS02004413WS02003067 CONDUIT    536.52     0  02:28      1.11    0.23    0.59
  WS02006109WS02006110 CONDUIT    552.06     0  02:58      1.10    1.06    1.00
  WS02006110WS02006113 CONDUIT    559.40     0  02:04      1.35    0.51    0.79
  WS02006111WS02006112 CONDUIT    543.09     0  02:54      1.82    0.26    0.67
  WS02006112WS02006115 CONDUIT    548.06     0  03:05      0.87    0.32    0.87
  WS02006113WS02006111 CONDUIT    562.95     0  02:54      2.47    0.67    0.46
  WS02006115WS02006116 CONDUIT    540.15     0  02:19      1.07    0.69    0.76
  WS02006116WS02004401 CONDUIT    539.06     0  02:20      0.98    0.74    0.84
  WS02006228WS02006109 CONDUIT    549.59     0  02:58      1.09    2.40    1.00
  WS02006229WS02006228 CONDUIT    549.48     0  02:58      1.15    1.82    1.00
  WS02006230WS02006229 CONDUIT    549.22     0  02:58      1.43   12.22    1.00
  WS02006231WS02006230 CONDUIT    572.47     0  03:08      1.55    8.68    1.00
  WS02006232WS02006231 CONDUIT    569.75     0  02:52      1.48    1.19    1.00
  WS02006234WS02006232 CONDUIT    568.72     0  02:52      1.48    1.15    1.00
  WS02006235WS02006234 CONDUIT    564.76     0  02:52      1.47    5.96    1.00
  WS02006238WS02006235 CONDUIT    422.44     0  02:40      1.57    0.94    1.00
  WS02006239WS02006238 CONDUIT    420.21     0  02:40      1.11    1.34    1.00
  WS02006240WS02006239 CONDUIT    420.45     0  02:40      1.24    1.32    1.00
  WS02006242WS02006240 CONDUIT    418.32     0  02:40      1.12    1.66    1.00
  WS02006243WS02006242 CONDUIT    418.52     0  02:40      1.39    0.89    1.00
  WS02006245WS02006243 CONDUIT    418.13     0  02:40      1.45    1.24    1.00
  WS02006247WS02006245 CONDUIT    416.98     0  02:40      1.44    3.31    1.00
  WS02006248WS02006247 CONDUIT    416.92     0  03:05      1.45    0.91    1.00
  WS02006249WS02006248 CONDUIT    417.12     0  02:40      1.37    2.28    1.00
  WS02006251WS02006249 CONDUIT    458.97     0  00:00      1.99    1.32    1.00
  WS02006252WS02006251 CONDUIT    407.72     0  02:58     25.11    1.50    1.00
  WS02006256WS02006235 CONDUIT    289.22     0  01:54      4.23    3.06    1.00
  WSF200WS02003060     CONDUIT    536.80     0  02:29      1.76    0.12    0.32
  YS02001580YS02001583 CONDUIT    136.88     0  01:58      0.80    0.53    1.00
  YS02001583YS02001586 CONDUIT    186.79     0  01:58      0.81    0.28    1.00
  YS02001586YS02001590 CONDUIT    318.05     0  02:04      1.28    0.56    1.00
  YS02001590YS02001593 CONDUIT    317.94     0  02:02      1.12    2.00    1.00
  YS02001593YS02001596 CONDUIT    317.90     0  02:09      1.73    0.50    1.00
  YS02001596YS02001600 CONDUIT    317.95     0  02:02      1.21    0.62    1.00
  YS02001600YS02001601 CONDUIT    317.87     0  02:08      1.12    0.55    1.00
  YS02001601YS02001602 CONDUIT    545.94     0  01:58      1.93    1.97    1.00
  YS02001602YS02001605 CONDUIT    546.15     0  01:58      1.93   11.56    1.00
  YS02001605YS02001607 CONDUIT    546.37     0  01:58      1.93    3.00    1.00
  YS02001607YS02001610 CONDUIT    544.24     0  01:58      0.69    0.52    1.00
  YS02001610YS02001613 CONDUIT    550.84     0  01:58      0.70    0.64    1.00
  YS02001613YS02001616 CONDUIT    565.63     0  01:58      0.72    0.48    1.00
  YS02001616YS02001619 CONDUIT    532.11     0  01:58      0.68    0.92    1.00
  YS02001619YS02001622 CONDUIT    973.70     0  01:58      1.24    1.44    1.00
  YS02001622YS02001625 CONDUIT    955.21     0  01:58      1.22    0.51    1.00
  YS02001625YS02001629 CONDUIT    955.35     0  01:58      1.22    0.45    1.00
  YS02001629YS02163301 CONDUIT    934.29     0  02:00      1.19    1.15    1.00
  YS02001633YS02163601 CONDUIT   1432.25     0  02:00      1.82    1.50    1.00
  YS02001641YS02001644 CONDUIT   1428.70     0  02:00      1.82    4.62    1.00
  YS02001644YS02001647 CONDUIT   1865.89     0  02:00      2.40    1.10    1.00
  YS02001647YS02001649 CONDUIT   1848.40     0  02:00      2.39    0.98    1.00
  YS02001649YS02001757 CONDUIT   2115.48     0  02:00      2.69    1.28    1.00
  YS02001652YS02001649 CONDUIT    590.67     0  02:04      0.78    0.29    1.00
  YS02001655YS02001652 CONDUIT    591.52     0  02:04      1.37    0.29    1.00
  YS02001658YS02001655 CONDUIT    591.83     0  02:04      1.98    0.25    1.00
  YS02001661YS02001658 CONDUIT    666.91     0  02:02      2.37    0.26    0.90
  YS02001664YS02001661 CONDUIT    494.13     0  02:02      2.29    0.15    0.57
  YS02001745YS02001748 CONDUIT    583.75     0  02:03      2.21    0.22    0.71
  YS02001748YS02001751 CONDUIT    435.65     0  02:06      1.77    0.22    1.00
  YS02001751YS02001754 CONDUIT    365.16     0  02:03      1.50    0.18    1.00
  YS02001754YS02001757 CONDUIT    364.46     0  02:03      0.50    0.15    1.00
  YS02001757CaochengTiaoxuchi CONDUIT   3078.31     0  02:03      3.92    1.33    1.00
  YS02001759YS02001757 CONDUIT   1111.98     0  02:01      1.42    0.79    1.00
  YS02001762YS02001759 CONDUIT    661.40     0  02:01      0.84    0.76    1.00
  YS02001765YS02001762 CONDUIT    652.56     0  02:01      0.83    0.61    1.00
  YS02001767YS02001765 CONDUIT    645.83     0  02:01      0.82    0.81    1.00
  YS02001770YS02001767 CONDUIT    639.95     0  02:01      0.82    2.53    1.00
  YS02001774YS02001770 CONDUIT    482.48     0  02:01      0.61    0.31    1.00
  YS02001779YS02001774 CONDUIT    491.70     0  02:01      0.63    0.25    1.00
  YS02001783YS02001784 CONDUIT   1148.85     0  02:03      2.29    1.58    1.00
  YS02001784YS02001785 CONDUIT   1149.49     0  02:03      2.29    2.68    1.00
  YS02001786YS02001788 CONDUIT   1149.89     0  02:03      2.46    2.22    0.89
  YS02001788YS02001790 CONDUIT   1166.05     0  02:02      2.72    0.86    0.83
  YS02001790YS02001791 CONDUIT   1274.51     0  02:05      3.42    1.39    0.70
  YS02001791YS02001793 CONDUIT   1230.12     0  02:04      6.70    0.53    0.44
  YS02001793JiankangQianchi CONDUIT   1222.88     0  02:02      2.46    0.10    0.65
  YS02001882YS02001884 CONDUIT     72.44     0  01:59      0.11    0.08    1.00
  YS02001884YS02001887 CONDUIT    128.45     0  01:59      0.16    0.17    1.00
  YS02001887YS02001890 CONDUIT    499.04     0  02:01      0.64    0.85    1.00
  YS02001890YS02001895 CONDUIT    504.56     0  02:01      0.64    0.24    1.00
  YS02001895YS02001898 CONDUIT    509.25     0  02:01      0.65    0.88    1.00
  YS02001898YS02001901 CONDUIT    515.58     0  02:01      0.66    0.33    1.00
  YS02001901YS02001904 CONDUIT    518.45     0  02:01      0.66    0.80    1.00
  YS02001904YS02001907 CONDUIT    521.98     0  02:00      0.66    0.18    1.00
  YS02001907YS02006553 CONDUIT    793.11     0  02:11      0.88    0.93    1.00
  YS02001910YS02001907 CONDUIT    957.02     0  02:02      1.22    0.54    1.00
  YS02001915YS02001910 CONDUIT    957.07     0  02:02      1.22    0.48    1.00
  YS02001918YS02001915 CONDUIT    466.12     0  02:01      0.63    0.26    1.00
  YS02001920YS02001918 CONDUIT    457.62     0  02:02      0.65    0.44    1.00
  YS02001923YS02001920 CONDUIT    453.48     0  02:02      0.74    0.20    1.00
  YS02001926YS02001923 CONDUIT    509.43     0  02:01      1.00    0.73    1.00
  YS02001929YS02001926 CONDUIT    457.28     0  02:02      1.18    0.22    1.00
  YS02006553YS02006556 CONDUIT    792.49     0  02:11      1.01    0.68    1.00
  YS02006556YS02006558 CONDUIT    794.31     0  02:11      1.01    0.63    1.00
  YS02006558YS02006561 CONDUIT   1155.43     0  02:01      4.09    2.55    1.00
  YS02006561YS02001783 CONDUIT   1148.74     0  02:02      2.29    0.59    1.00
  YS02163301YS02001633 CONDUIT    934.45     0  02:00      1.19    0.88    1.00
  YS02163601YS02164001 CONDUIT   1431.65     0  02:00      1.82    1.27    1.00
  YS02164001YS02001641 CONDUIT   1429.46     0  02:00      1.82    1.95    1.00
  CC-R1                PUMP       683.00     0  00:00              1.00
  CC-R2                PUMP       683.00     0  00:00              1.00
  CC-S1                PUMP       200.00     0  00:00              1.00
  CC-S2                PUMP       200.00     0  00:00              1.00
  JK-R1                PUMP      1000.00     0  00:00              1.00
  JK-R2                PUMP      1000.00     0  00:00              1.00
  JK-S                 PUMP       300.00     0  00:00              1.00
  XR-1                 PUMP        95.00     0  00:00              1.00
  XR-2                 PUMP        95.00     0  00:00              1.00
  XR-3                 PUMP        95.00     0  00:00              1.00
  XR-4                 PUMP        95.00     0  00:00              1.00
  
  
  ***************************
  Flow Classification Summary
  ***************************
  
  -------------------------------------------------------------------------------------
                      Adjusted    ---------- Fraction of Time in Flow Class ---------- 
                       /Actual         Up    Down  Sub   Sup   Up    Down  Norm  Inlet 
  Conduit               Length    Dry  Dry   Dry   Crit  Crit  Crit  Crit  Ltd   Ctrl  
  -------------------------------------------------------------------------------------
  1                       1.00   0.00  0.00  0.00  0.00  1.00  0.00  0.00  0.20  0.00
  WS02001211WS02001212    1.00   0.00  0.02  0.00  0.98  0.00  0.00  0.00  0.00  0.00
  WS02001212WS02001213    1.00   0.02  0.00  0.00  0.17  0.00  0.81  0.00  0.00  0.00
  WS02001213WS02003059    1.00   0.00  0.01  0.00  0.99  0.00  0.00  0.00  0.00  0.00
  WS02003059WS02003060    1.00   0.00  0.00  0.00  1.00  0.00  0.00  0.00  0.03  0.00
  WS02003060WS02003069    1.00   0.00  0.00  0.00  0.98  0.02  0.00  0.00  0.68  0.00
  WS02003066WSF200        1.00   0.13  0.00  0.00  0.00  0.87  0.00  0.00  0.77  0.00
  WS02003067WS02003066    1.00   0.10  0.02  0.00  0.88  0.00  0.00  0.00  0.00  0.00
  WS02003069WS02003072    1.00   0.00  0.00  0.00  1.00  0.00  0.00  0.00  0.80  0.00
  WS02003072WS02003073    1.00   0.00  0.00  0.00  0.00  0.00  0.00  1.00  0.00  0.00
  WS02004138WS02004139    1.00   0.00  0.00  0.00  0.97  0.01  0.00  0.02  0.98  0.00
  WS02004139WS02001211    1.00   0.00  0.00  0.00  0.99  0.00  0.00  0.00  0.00  0.00
  WS02004401WS02004402    1.00   0.02  0.00  0.00  0.98  0.00  0.00  0.00  0.00  0.00
  WS02004402WS02004403    1.00   0.02  0.00  0.00  0.97  0.00  0.00  0.00  0.00  0.00
  WS02004403WS02004404    1.00   0.00  0.03  0.00  0.97  0.00  0.00  0.00  0.00  0.00
  WS02004404WS02004405    1.00   0.00  0.00  0.00  1.00  0.00  0.00  0.00  0.01  0.00
  WS02004405WS02004406    1.00   0.00  0.00  0.00  1.00  0.00  0.00  0.00  0.00  0.00
  WS02004406WS02004407    1.00   0.00  0.05  0.00  0.95  0.00  0.00  0.00  0.00  0.00
  WS02004407WS02004409    1.00   0.05  0.00  0.00  0.94  0.01  0.00  0.00  0.94  0.00
  WS02004409WS02004410    1.00   0.05  0.00  0.00  0.95  0.00  0.00  0.00  0.03  0.00
  WS02004410WS02004411    1.00   0.05  0.00  0.00  0.95  0.00  0.00  0.00  0.01  0.00
  WS02004411WS02004412    1.00   0.05  0.00  0.00  0.95  0.00  0.00  0.00  0.00  0.00
  WS02004412WS02004413    1.00   0.05  0.00  0.00  0.94  0.00  0.00  0.00  0.01  0.00
  WS02004413WS02003067    1.00   0.06  0.04  0.00  0.00  0.00  0.90  0.00  0.00  0.00
  WS02006109WS02006110    1.00   0.00  0.01  0.00  0.98  0.00  0.01  0.00  0.00  0.00
  WS02006110WS02006113    1.00   0.01  0.01  0.00  0.98  0.00  0.00  0.00  0.00  0.00
  WS02006111WS02006112    1.00   0.02  0.00  0.00  0.98  0.00  0.00  0.00  0.98  0.00
  WS02006112WS02006115    1.00   0.02  0.00  0.00  0.97  0.00  0.00  0.00  0.00  0.00
  WS02006113WS02006111    1.00   0.02  0.00  0.00  0.00  0.98  0.00  0.00  0.09  0.00
  WS02006115WS02006116    1.00   0.02  0.00  0.00  0.97  0.00  0.00  0.01  0.00  0.00
  WS02006116WS02004401    1.00   0.02  0.00  0.00  0.98  0.00  0.00  0.00  0.00  0.00
  WS02006228WS02006109    1.00   0.00  0.00  0.00  1.00  0.00  0.00  0.00  0.00  0.00
  WS02006229WS02006228    1.00   0.00  0.00  0.00  0.99  0.00  0.00  0.01  0.00  0.00
  WS02006230WS02006229    1.00   0.00  0.00  0.00  0.99  0.00  0.00  0.01  0.02  0.00
  WS02006231WS02006230    1.00   0.00  0.00  0.00  0.16  0.00  0.84  0.00  0.00  0.00
  WS02006232WS02006231    1.00   0.00  0.00  0.00  0.98  0.00  0.01  0.00  0.00  0.00
  WS02006234WS02006232    1.00   0.00  0.00  0.00  1.00  0.00  0.00  0.00  0.32  0.00
  WS02006235WS02006234    1.00   0.00  0.00  0.00  0.61  0.00  0.39  0.00  0.00  0.00
  WS02006238WS02006235    1.00   0.00  0.00  0.00  1.00  0.00  0.00  0.00  0.00  0.00
  WS02006239WS02006238    1.00   0.00  0.00  0.00  1.00  0.00  0.00  0.00  0.51  0.00
  WS02006240WS02006239    1.00   0.00  0.00  0.00  0.42  0.00  0.00  0.57  0.02  0.00
  WS02006242WS02006240    1.00   0.00  0.00  0.00  1.00  0.00  0.00  0.00  0.00  0.00
  WS02006243WS02006242    1.00   0.00  0.00  0.00  0.99  0.00  0.00  0.01  0.75  0.00
  WS02006245WS02006243    1.00   0.00  0.00  0.00  0.44  0.00  0.00  0.56  0.03  0.00
  WS02006247WS02006245    1.00   0.00  0.00  0.00  0.97  0.00  0.00  0.03  0.00  0.00
  WS02006248WS02006247    1.00   0.00  0.00  0.00  0.99  0.00  0.00  0.01  0.25  0.00
  WS02006249WS02006248    1.00   0.00  0.00  0.00  0.29  0.00  0.71  0.00  0.00  0.00
  WS02006251WS02006249    1.00   0.00  0.00  0.00  0.99  0.01  0.00  0.00  0.76  0.00
  WS02006252WS02006251    1.00   0.00  0.78  0.00  0.10  0.00  0.12  0.00  0.00  0.00
  WS02006256WS02006235    1.00   0.00  0.00  0.00  0.99  0.01  0.00  0.00  0.00  0.00
  WSF200WS02003060        1.00   0.00  0.13  0.00  0.72  0.15  0.00  0.00  0.71  0.00
  YS02001580YS02001583    1.00   0.24  0.60  0.00  0.15  0.00  0.00  0.00  0.69  0.00
  YS02001583YS02001586    1.00   0.50  0.29  0.00  0.21  0.00  0.00  0.00  0.70  0.00
  YS02001586YS02001590    1.00   0.13  0.00  0.00  0.37  0.04  0.00  0.47  0.34  0.00
  YS02001590YS02001593    1.00   0.13  0.01  0.00  0.07  0.00  0.79  0.00  0.00  0.00
  YS02001593YS02001596    1.00   0.14  0.00  0.00  0.09  0.01  0.00  0.77  0.01  0.00
  YS02001596YS02001600    1.00   0.14  0.00  0.00  0.15  0.02  0.00  0.69  0.05  0.00
  YS02001600YS02001601    1.00   0.13  0.01  0.00  0.86  0.00  0.00  0.00  0.64  0.00
  YS02001601YS02001602    1.00   0.13  0.01  0.00  0.86  0.00  0.00  0.00  0.00  0.00
  YS02001602YS02001605    1.00   0.14  0.00  0.00  0.86  0.00  0.00  0.00  0.00  0.00
  YS02001605YS02001607    1.00   0.14  0.00  0.00  0.86  0.00  0.00  0.00  0.00  0.00
  YS02001607YS02001610    1.00   0.13  0.01  0.00  0.86  0.00  0.00  0.00  0.02  0.00
  YS02001610YS02001613    1.00   0.13  0.00  0.00  0.87  0.00  0.00  0.00  0.01  0.00
  YS02001613YS02001616    1.00   0.13  0.00  0.00  0.87  0.00  0.00  0.00  0.01  0.00
  YS02001616YS02001619    1.00   0.13  0.00  0.00  0.87  0.00  0.00  0.00  0.00  0.00
  YS02001619YS02001622    1.00   0.13  0.00  0.00  0.87  0.00  0.00  0.00  0.36  0.00
  YS02001622YS02001625    1.00   0.13  0.00  0.00  0.87  0.00  0.00  0.00  0.05  0.00
  YS02001625YS02001629    1.00   0.13  0.06  0.00  0.11  0.00  0.70  0.00  0.00  0.00
  YS02001629YS02163301    1.00   0.16  0.01  0.00  0.83  0.00  0.00  0.00  0.00  0.00
  YS02001633YS02163601    1.00   0.00  0.01  0.00  0.99  0.00  0.00  0.00  0.15  0.00
  YS02001641YS02001644    1.00   0.00  0.01  0.00  0.99  0.00  0.00  0.00  0.00  0.00
  YS02001644YS02001647    1.00   0.00  0.18  0.00  0.82  0.00  0.00  0.00  0.00  0.00
  YS02001647YS02001649    1.00   0.00  0.18  0.00  0.54  0.28  0.00  0.00  0.60  0.00
  YS02001649YS02001757    1.00   0.00  0.00  0.00  0.69  0.31  0.00  0.00  0.58  0.00
  YS02001652YS02001649    1.00   0.00  0.00  0.00  0.96  0.04  0.00  0.00  0.79  0.00
  YS02001655YS02001652    1.00   0.00  0.00  0.00  0.12  0.02  0.00  0.86  0.05  0.00
  YS02001658YS02001655    1.00   0.00  0.14  0.00  0.63  0.22  0.00  0.00  0.74  0.00
  YS02001661YS02001658    1.00   0.14  0.00  0.00  0.50  0.36  0.00  0.00  0.74  0.00
  YS02001664YS02001661    1.00   0.13  0.00  0.00  0.78  0.09  0.00  0.00  0.87  0.00
  YS02001745YS02001748    1.00   0.00  0.00  0.00  0.05  0.01  0.00  0.94  0.04  0.00
  YS02001748YS02001751    1.00   0.00  0.00  0.00  0.81  0.19  0.00  0.00  0.80  0.00
  YS02001751YS02001754    1.00   0.00  0.00  0.00  0.10  0.00  0.00  0.90  0.02  0.00
  YS02001754YS02001757    1.00   0.00  0.00  0.00  1.00  0.00  0.00  0.00  0.89  0.00
  YS02001757CaochengTiaoxuchi    1.00   0.00  0.00  0.00  1.00  0.00  0.00  0.00  0.88  0.00
  YS02001759YS02001757    1.00   0.00  0.00  0.00  1.00  0.00  0.00  0.00  0.64  0.00
  YS02001762YS02001759    1.00   0.00  0.00  0.00  1.00  0.00  0.00  0.00  0.05  0.00
  YS02001765YS02001762    1.00   0.00  0.00  0.00  1.00  0.00  0.00  0.00  0.78  0.00
  YS02001767YS02001765    1.00   0.00  0.00  0.00  1.00  0.00  0.00  0.00  0.00  0.00
  YS02001770YS02001767    1.00   0.00  0.00  0.00  1.00  0.00  0.00  0.00  0.00  0.00
  YS02001774YS02001770    1.00   0.00  0.13  0.00  0.59  0.00  0.27  0.00  0.04  0.00
  YS02001779YS02001774    1.00   0.00  0.00  0.00  1.00  0.00  0.00  0.00  0.83  0.00
  YS02001783YS02001784    1.00   0.00  0.19  0.00  0.81  0.00  0.00  0.00  0.58  0.00
  YS02001784YS02001785    1.00   0.00  0.00  0.00  1.00  0.00  0.00  0.00  0.18  0.00
  YS02001786YS02001788    1.00   0.00  0.00  0.00  0.81  0.19  0.00  0.00  0.00  0.00
  YS02001788YS02001790    1.00   0.00  0.00  0.00  0.21  0.79  0.00  0.00  0.85  0.00
  YS02001790YS02001791    1.00   0.00  0.00  0.00  0.01  0.99  0.00  0.00  0.15  0.00
  YS02001791YS02001793    1.00   0.00  0.00  0.00  0.00  1.00  0.00  0.00  0.00  0.00
  YS02001793JiankangQianchi    1.00   0.00  0.00  0.00  0.99  0.00  0.00  0.00  0.97  0.00
  YS02001882YS02001884    1.00   0.16  0.01  0.00  0.83  0.00  0.00  0.00  0.00  0.00
  YS02001884YS02001887    1.00   0.06  0.05  0.00  0.89  0.00  0.00  0.00  0.00  0.00
  YS02001887YS02001890    1.00   0.00  0.00  0.00  0.97  0.00  0.03  0.00  0.00  0.00
  YS02001890YS02001895    1.00   0.00  0.17  0.00  0.83  0.00  0.00  0.00  0.00  0.00
  YS02001895YS02001898    1.00   0.17  0.00  0.00  0.81  0.00  0.02  0.00  0.00  0.00
  YS02001898YS02001901    1.00   0.17  0.00  0.00  0.82  0.00  0.00  0.00  0.01  0.00
  YS02001901YS02001904    1.00   0.17  0.00  0.00  0.83  0.00  0.00  0.00  0.00  0.00
  YS02001904YS02001907    1.00   0.00  0.17  0.00  0.83  0.00  0.00  0.00  0.00  0.00
  YS02001907YS02006553    1.00   0.00  0.02  0.00  0.98  0.00  0.00  0.00  0.00  0.00
  YS02001910YS02001907    1.00   0.00  0.00  0.00  0.97  0.00  0.00  0.03  0.12  0.00
  YS02001915YS02001910    1.00   0.00  0.00  0.00  0.96  0.04  0.00  0.00  0.17  0.00
  YS02001918YS02001915    1.00   0.00  0.01  0.00  0.98  0.02  0.00  0.00  0.79  0.00
  YS02001920YS02001918    1.00   0.00  0.01  0.00  0.99  0.00  0.00  0.00  0.00  0.00
  YS02001923YS02001920    1.00   0.00  0.00  0.00  1.00  0.00  0.00  0.00  0.96  0.00
  YS02001926YS02001923    1.00   0.00  0.07  0.00  0.03  0.00  0.89  0.00  0.00  0.00
  YS02001929YS02001926    1.00   0.00  0.13  0.00  0.87  0.00  0.00  0.00  0.85  0.00
  YS02006553YS02006556    1.00   0.01  0.00  0.00  0.99  0.00  0.00  0.00  0.03  0.00
  YS02006556YS02006558    1.00   0.00  0.00  0.00  1.00  0.00  0.00  0.00  0.00  0.00
  YS02006558YS02006561    1.00   0.19  0.00  0.00  0.03  0.78  0.00  0.00  0.18  0.00
  YS02006561YS02001783    1.00   0.19  0.00  0.00  0.05  0.76  0.00  0.00  0.72  0.00
  YS02163301YS02001633    1.00   0.00  0.16  0.00  0.84  0.00  0.00  0.00  0.00  0.00
  YS02163601YS02164001    1.00   0.00  0.08  0.00  0.92  0.00  0.00  0.00  0.00  0.00
  YS02164001YS02001641    1.00   0.01  0.07  0.00  0.92  0.00  0.00  0.00  0.06  0.00
  
  
  *************************
  Conduit Surcharge Summary
  *************************
  
  ----------------------------------------------------------------------------
                                                           Hours        Hours 
                         --------- Hours Full --------   Above Full   Capacity
  Conduit                Both Ends  Upstream  Dnstream   Normal Flow   Limited
  ----------------------------------------------------------------------------
  WS02003072WS02003073        0.01      0.01      0.01      1.33         0.01
  WS02004404WS02004405        0.01      0.01      0.01      1.69         0.01
  WS02004405WS02004406        0.01      0.01      0.01      0.57         0.01
  WS02006109WS02006110        0.68      0.68      1.22      0.74         0.01
  WS02006110WS02006113        0.01      0.01      1.22      0.01         0.01
  WS02006111WS02006112        0.01      0.01      1.30      0.01         0.01
  WS02006112WS02006115        0.01      0.01      0.62      0.01         0.01
  WS02006228WS02006109        1.22      1.22      1.22      1.37         1.22
  WS02006229WS02006228        1.21      1.21      1.21      1.28         1.20
  WS02006230WS02006229        1.24      1.26      1.24      2.46         1.24
  WS02006231WS02006230        0.69      0.69      0.78      2.04         0.01
  WS02006232WS02006231        0.75      0.75      1.22      0.79         0.01
  WS02006234WS02006232        1.19      1.19      1.22      0.78         0.78
  WS02006235WS02006234        1.01      1.01      1.20      1.85         0.01
  WS02006238WS02006235        1.21      1.21      1.22      0.01         0.01
  WS02006239WS02006238        1.22      1.22      1.22      1.19         1.09
  WS02006240WS02006239        1.19      1.20      1.20      1.20         1.02
  WS02006242WS02006240        1.19      1.19      1.21      1.25         0.01
  WS02006243WS02006242        1.18      1.18      1.20      0.01         0.02
  WS02006245WS02006243        1.18      1.18      1.18      0.50         0.54
  WS02006247WS02006245        1.17      1.18      1.17      1.42         1.17
  WS02006248WS02006247        1.17      1.17      1.18      0.01         0.02
  WS02006249WS02006248        1.17      1.17      1.17      1.40         0.01
  WS02006251WS02006249        1.16      1.16      1.17      1.27         1.13
  WS02006252WS02006251        1.35      1.35      1.35      1.35         0.01
  WS02006256WS02006235        1.90      1.94      3.91      1.20         0.01
  YS02001580YS02001583        0.31      0.31      0.35      0.01         0.01
  YS02001583YS02001586        0.32      0.32      0.44      0.01         0.01
  YS02001586YS02001590        0.44      0.44      0.49      0.01         0.01
  YS02001590YS02001593        0.50      0.50      0.51      0.53         0.01
  YS02001593YS02001596        0.51      0.51      0.59      0.01         0.01
  YS02001596YS02001600        0.62      0.62      0.70      0.01         0.01
  YS02001600YS02001601        0.75      0.75      1.04      0.01         0.01
  YS02001601YS02001602        0.91      0.91      1.09      0.71         0.01
  YS02001602YS02001605        0.86      0.86      0.91      1.89         0.01
  YS02001605YS02001607        0.82      0.86      0.82      0.99         0.82
  YS02001607YS02001610        0.47      0.47      0.48      0.01         0.01
  YS02001610YS02001613        0.46      0.46      0.48      0.01         0.01
  YS02001613YS02001616        0.42      0.42      0.46      0.01         0.01
  YS02001616YS02001619        0.41      0.41      0.42      0.01         0.01
  YS02001619YS02001622        0.41      0.41      0.41      0.53         0.39
  YS02001622YS02001625        0.41      0.41      0.56      0.01         0.01
  YS02001625YS02001629        0.37      0.37      0.56      0.01         0.01
  YS02001629YS02163301        0.55      0.55      0.56      0.13         0.14
  YS02001633YS02163601        0.57      0.57      0.59      0.32         0.31
  YS02001641YS02001644        0.49      0.52      0.49      1.15         0.48
  YS02001644YS02001647        0.32      0.32      0.49      0.03         0.01
  YS02001647YS02001649        0.32      0.32      0.41      0.01         0.01
  YS02001649YS02001757        0.41      0.41      0.45      0.20         0.15
  YS02001652YS02001649        0.27      0.27      0.41      0.01         0.01
  YS02001655YS02001652        0.14      0.14      0.26      0.01         0.01
  YS02001658YS02001655        0.02      0.02      0.14      0.01         0.01
  YS02001661YS02001658        0.01      0.01      0.02      0.01         0.01
  YS02001745YS02001748        0.01      0.01      0.01      0.01         0.01
  YS02001748YS02001751        0.01      0.01      0.05      0.01         0.01
  YS02001751YS02001754        0.05      0.05      0.17      0.01         0.01
  YS02001754YS02001757        0.21      0.21      0.45      0.01         0.01
  YS02001757CaochengTiaoxuchi        0.45      0.45      0.92      0.20         0.18
  YS02001759YS02001757        0.37      0.37      0.45      0.01         0.01
  YS02001762YS02001759        0.34      0.34      0.37      0.01         0.01
  YS02001765YS02001762        0.30      0.30      0.34      0.01         0.01
  YS02001767YS02001765        0.28      0.28      0.30      0.01         0.01
  YS02001770YS02001767        0.28      0.28      0.28      0.30         0.19
  YS02001774YS02001770        0.26      0.26      0.33      0.01         0.01
  YS02001779YS02001774        0.17      0.17      0.33      0.01         0.01
  YS02001783YS02001784        0.28      0.30      0.28      0.41         0.28
  YS02001784YS02001785        0.20      0.28      0.20      0.58         0.20
  YS02001786YS02001788        0.01      0.20      0.01      0.49         0.01
  YS02001790YS02001791        0.01      0.01      0.01      0.27         0.01
  YS02001793JiankangQianchi        0.01      0.01      7.70      0.01         0.01
  YS02001882YS02001884        0.26      0.26      0.27      0.01         0.01
  YS02001884YS02001887        0.28      0.28      0.29      0.01         0.01
  YS02001887YS02001890        0.30      0.30      0.31      0.01         0.01
  YS02001890YS02001895        0.25      0.25      0.33      0.01         0.01
  YS02001895YS02001898        0.24      0.24      0.25      0.01         0.01
  YS02001898YS02001901        0.25      0.25      0.28      0.01         0.01
  YS02001901YS02001904        0.27      0.27      0.28      0.01         0.01
  YS02001904YS02001907        0.27      0.27      0.47      0.01         0.01
  YS02001907YS02006553        0.59      0.59      0.64      0.01         0.01
  YS02001910YS02001907        0.32      0.32      0.46      0.01         0.01
  YS02001915YS02001910        0.25      0.25      0.32      0.01         0.01
  YS02001918YS02001915        0.18      0.18      0.25      0.01         0.01
  YS02001920YS02001918        0.18      0.18      0.19      0.01         0.01
  YS02001923YS02001920        0.13      0.13      0.19      0.01         0.01
  YS02001926YS02001923        0.01      0.01      0.01      0.01         0.01
  YS02001929YS02001926        0.01      0.01      0.01      0.01         0.01
  YS02006553YS02006556        0.39      0.39      0.47      0.01         0.01
  YS02006556YS02006558        0.44      0.44      0.49      0.01         0.01
  YS02006558YS02006561        0.21      0.39      0.21      0.54         0.21
  YS02006561YS02001783        0.15      0.15      0.30      0.01         0.01
  YS02163301YS02001633        0.56      0.56      0.59      0.01         0.01
  YS02163601YS02164001        0.52      0.52      0.59      0.05         0.01
  YS02164001YS02001641        0.52      0.52      0.52      0.60         0.48
  
  
  ***************
  Pumping Summary
  ***************
  
  ---------------------------------------------------------------------------------------------------------
                                                  Min       Avg       Max     Total     Power    % Time Off
                        Percent   Number of      Flow      Flow      Flow    Volume     Usage    Pump Curve
  Pump                 Utilized   Start-Ups       LPS       LPS       LPS  10^6 ltr     Kw-hr    Low   High
  ---------------------------------------------------------------------------------------------------------
  CC-R1                   16.05          14      0.00    683.00    683.00     3.157     57.04    0.0   33.3
  CC-R2                   14.86          14      0.00    683.00    683.00     2.923     52.70    0.0   35.9
  CC-S1                   18.44          14      0.00    200.00    200.00     1.062      6.48    0.0    0.0
  CC-S2                   16.90          14      0.00    200.00    200.00     0.973      5.95    0.0    0.0
  JK-R1                    4.95           8      0.00   1000.00   1000.00     1.425     16.07    0.0    0.0
  JK-R2                    0.16           1      0.00   1000.00   1000.00     0.047      0.36    0.0    0.0
  JK-S                    14.92          13      0.00    300.00    300.00     1.289     18.06    0.0    0.0
  XR-1                    97.91           2      0.00     95.00     95.00     2.679      9.60    0.0    0.0
  XR-2                    93.94           2      0.00     95.00     95.00     2.570      8.76    0.0    0.0
  XR-3                     0.00           1      0.00     95.00     95.00     0.000      0.00    0.0    0.0
  XR-4                     0.00           1      0.00     95.00     95.00     0.000      0.00    0.0    0.0
  

  Analysis begun on:  Wed Nov  5 16:32:07 2025
  Analysis ended on:  Wed Nov  5 16:32:09 2025
  Total elapsed time: 00:00:02