
  EPA STORM WATER MANAGEMENT MODEL - VERSION 5.2 (Build 5.2.4)
  PYSWMM TOOLKIT API - VERSION v1.0 (2023-11-27)
  ------------------------------------------------------------

  WARNING 04: minimum elevation drop used for Conduit WS02004404WS02004405
  WARNING 03: negative offset ignored for Link YS02001904YS02001907
  
  ****************
  Analysis Options
  ****************
  Flow Units ............... LPS
  Process Models:
    Rainfall/Runoff ........ YES
    RDII ................... NO
    Snowmelt ............... NO
    Groundwater ............ NO
    Flow Routing ........... YES
    Ponding Allowed ........ NO
    Water Quality .......... NO
  Infiltration Method ...... HORTON
  Flow Routing Method ...... DYNWAVE
  Surcharge Method ......... EXTRAN
  Starting Date ............ 08/28/2015 08:00:00
  Ending Date .............. 08/28/2015 16:00:00
  Antecedent Dry Days ...... 8.0
  Report Time Step ......... 00:01:00
  Wet Time Step ............ 00:01:00
  Dry Time Step ............ 00:01:00
  Routing Time Step ........ 30.00 sec
  Variable Time Step ....... YES
  Maximum Trials ........... 8
  Number of Threads ........ 4
  Head Tolerance ........... 0.001500 m
  
  
  **************************        Volume         Depth
  Runoff Quantity Continuity     hectare-m            mm
  **************************     ---------       -------
  Initial LID Storage ......         0.049         1.488
  Total Precipitation ......         1.576        47.498
  Evaporation Loss .........         0.000         0.000
  Infiltration Loss ........         0.074         2.227
  Surface Runoff ...........         1.144        34.494
  Final Storage ............         0.408        12.289
  Continuity Error (%) .....        -0.051
  
  
  **************************        Volume        Volume
  Flow Routing Continuity        hectare-m      10^6 ltr
  **************************     ---------     ---------
  Dry Weather Inflow .......         0.602         6.020
  Wet Weather Inflow .......         1.144        11.441
  Groundwater Inflow .......         0.000         0.000
  RDII Inflow ..............         0.000         0.000
  External Inflow ..........         0.105         1.045
  External Outflow .........         1.617        16.174
  Flooding Loss ............         0.207         2.070
  Evaporation Loss .........         0.000         0.000
  Exfiltration Loss ........         0.000         0.000
  Initial Stored Volume ....         0.303         3.031
  Final Stored Volume ......         0.335         3.347
  Continuity Error (%) .....        -0.253
  
  
  *************************
  Highest Continuity Errors
  *************************
  Node YS02001884 (5.42%)
  Node YS02001583 (-5.39%)
  Node YS02001774 (1.82%)
  
  
  ***************************
  Time-Step Critical Elements
  ***************************
  Link WS02004404WS02004405 (29.62%)
  Link WS02006238WS02006235 (20.77%)
  Link WS02006252WS02006251 (17.18%)
  Link YS02001791YS02001793 (9.09%)
  Link WS02006235WS02006234 (6.78%)
  
  
  ********************************
  Highest Flow Instability Indexes
  ********************************
  Link WS02006113WS02006111 (26)
  Link WS02006252WS02006251 (24)
  Link WS02006111WS02006112 (16)
  Link WS02006238WS02006235 (15)
  Link WS02006256WS02006235 (14)
  
  
  *********************************
  Most Frequent Nonconverging Nodes
  *********************************
  Node CC-1 (12.28%)
  Node CC-2 (12.28%)
  Node JK-1 (12.28%)
  Node JK-2 (12.28%)
  Node WSC (12.28%)
  
  
  *************************
  Routing Time Step Summary
  *************************
  Minimum Time Step           :     0.00 sec
  Average Time Step           :     3.37 sec
  Maximum Time Step           :     7.04 sec
  % of Time in Steady State   :     0.00
  Average Iterations per Step :     3.08
  % of Steps Not Converging   :    12.28
  Time Step Frequencies       :
     30.000 - 13.228 sec      :     0.00 %
     13.228 -  5.833 sec      :    23.45 %
      5.833 -  2.572 sec      :    36.07 %
      2.572 -  1.134 sec      :    20.82 %
      1.134 -  0.500 sec      :    19.66 %
  
  
  ***************************
  Subcatchment Runoff Summary
  ***************************
  
  ------------------------------------------------------------------------------------------------------------------------------
                            Total      Total      Total      Total     Imperv       Perv      Total       Total     Peak  Runoff
                           Precip      Runon       Evap      Infil     Runoff     Runoff     Runoff      Runoff   Runoff   Coeff
  Subcatchment                 mm         mm         mm         mm         mm         mm         mm    10^6 ltr      LPS
  ------------------------------------------------------------------------------------------------------------------------------
  sub60                     47.50       0.00       0.00       1.31      31.33       3.09      34.43        0.45   353.59   0.725
  sub61                     47.50       0.00       0.00       2.02      31.31       4.59      35.89        0.66   516.02   0.756
  sub62                     47.50       0.00       0.00       0.89      33.37       2.10      35.47        0.97   705.31   0.747
  sub63                     47.50       0.00       0.00       3.73      26.81       7.55      34.36        0.78   585.15   0.723
  sub64                     47.50       0.00       0.00       1.78      30.52       3.77      34.29        0.82   573.03   0.722
  sub65                     47.50       0.00       0.00       1.64      32.94       3.44      36.38        1.00   666.46   0.766
  sub66                     47.50       0.00       0.00       4.40      25.91       6.53      32.44        1.51   861.66   0.683
  sub67                     47.50       0.00       0.00       0.88      34.22       2.18      36.40        0.68   546.45   0.766
  sub68                     47.50       0.00       0.00       1.55      30.22       3.52      33.74        0.93   703.90   0.710
  sub69                     47.50       0.00       0.00       1.41      31.92       4.23      36.15        1.34   862.35   0.761
  sub70                     47.50       0.00       0.00       4.82      25.56       8.40      33.96        0.98   496.34   0.715
  sub71                     47.50       0.00       0.00       0.82      30.31       1.89      32.20        0.84   579.41   0.678
  sub72                     47.50       0.00       0.00       0.79      32.73       1.76      34.49        0.47   296.88   0.726
  

  ***********************
  LID Performance Summary
  ***********************

  --------------------------------------------------------------------------------------------------------------------
                                         Total      Evap     Infil   Surface    Drain    Initial     Final  Continuity
                                        Inflow      Loss      Loss   Outflow   Outflow   Storage   Storage       Error
  Subcatchment      LID Control             mm        mm        mm        mm        mm        mm        mm           %
  --------------------------------------------------------------------------------------------------------------------
  sub60             GreenRoof            47.50      0.00      0.00      0.00      0.00      7.05     54.62       -0.14
  sub61             GreenRoof            47.50      0.00      0.00      0.00      0.00      7.05     54.62       -0.14
  sub62             GreenRoof            47.50      0.00      0.00      0.00      0.00      7.05     54.62       -0.14
  sub63             GreenRoof            47.50      0.00      0.00      0.00      0.00      7.05     54.62       -0.14
  sub64             GreenRoof            47.50      0.00      0.00      0.00      0.00      7.05     54.62       -0.14
  sub65             GreenRoof            47.50      0.00      0.00      0.00      0.00      7.05     54.62       -0.14
  sub66             GreenRoof            47.50      0.00      0.00      0.00      0.00      7.05     54.62       -0.14
  sub67             GreenRoof            47.50      0.00      0.00      0.00      0.00      7.05     54.62       -0.14
  sub68             GreenRoof            47.50      0.00      0.00      0.00      0.00      7.05     54.62       -0.14
  sub69             GreenRoof            47.50      0.00      0.00      0.00      0.00      7.05     54.62       -0.14
  sub70             GreenRoof            47.50      0.00      0.00      0.00      0.00      7.05     54.62       -0.14
  sub71             GreenRoof            47.50      0.00      0.00      0.00      0.00      7.05     54.62       -0.14
  sub72             GreenRoof            47.50      0.00      0.00      0.00      0.00      7.05     54.62       -0.14
  
  ******************
  Node Depth Summary
  ******************
  
  ---------------------------------------------------------------------------------
                                 Average  Maximum  Maximum  Time of Max    Reported
                                   Depth    Depth      HGL   Occurrence   Max Depth
  Node                 Type       Meters   Meters   Meters  days hr:min      Meters
  ---------------------------------------------------------------------------------
  WS02001211           JUNCTION     0.60     0.64     5.48     0  02:46        0.64
  WS02001212           JUNCTION     0.33     0.38     5.45     0  02:43        0.38
  WS02001213           JUNCTION     0.52     0.65     5.41     0  03:03        0.65
  WS02003059           JUNCTION     0.58     0.72     5.40     0  02:44        0.72
  WS02003060           JUNCTION     0.29     0.45     5.38     0  02:41        0.45
  WS02003066           JUNCTION     0.15     0.30     5.85     0  03:01        0.30
  WS02003067           JUNCTION     0.41     0.70     6.02     0  03:01        0.70
  WS02003069           JUNCTION     0.32     0.51     5.09     0  03:02        0.51
  WS02003072           JUNCTION     0.39     0.57     4.94     0  03:03        0.57
  WS02003073           JUNCTION     0.22     0.35     4.41     0  03:04        0.35
  WS02004138           JUNCTION     0.13     0.14     7.39     0  00:29        0.14
  WS02004139           JUNCTION     0.54     0.58     5.49     0  03:05        0.58
  WS02004401           JUNCTION     0.49     0.85     6.85     0  02:59        0.85
  WS02004402           JUNCTION     0.53     0.88     6.84     0  02:59        0.88
  WS02004403           JUNCTION     0.55     0.89     6.82     0  02:59        0.89
  WS02004404           JUNCTION     0.63     0.96     6.81     0  02:59        0.96
  WS02004405           JUNCTION     0.62     0.95     6.80     0  02:59        0.95
  WS02004406           JUNCTION     0.64     0.96     6.79     0  02:59        0.96
  WS02004407           JUNCTION     0.12     0.30     6.61     0  03:00        0.30
  WS02004409           JUNCTION     0.28     0.67     6.44     0  03:00        0.67
  WS02004410           JUNCTION     0.31     0.68     6.40     0  03:00        0.68
  WS02004411           JUNCTION     0.33     0.69     6.37     0  03:00        0.69
  WS02004412           JUNCTION     0.36     0.70     6.34     0  03:01        0.70
  WS02004413           JUNCTION     0.52     0.86     6.33     0  03:01        0.86
  WS02006109           JUNCTION     0.55     1.64     8.25     0  02:42        0.99
  WS02006110           JUNCTION     0.56     2.12     8.70     0  02:42        0.93
  WS02006111           JUNCTION     0.13     0.29     6.99     0  02:44        0.29
  WS02006112           JUNCTION     0.64     1.10     6.98     0  02:43        1.10
  WS02006113           JUNCTION     0.20     0.46     7.35     0  03:24        0.46
  WS02006115           JUNCTION     0.38     0.75     6.89     0  02:58        0.75
  WS02006116           JUNCTION     0.46     0.83     6.87     0  02:58        0.83
  WS02006228           JUNCTION     0.54     1.61     8.26     0  02:42        1.08
  WS02006229           JUNCTION     0.51     1.66     8.35     0  02:42        1.09
  WS02006230           JUNCTION     0.50     2.00     8.75     0  02:42        1.21
  WS02006231           JUNCTION     0.32     2.24     9.36     0  02:20        2.24
  WS02006232           JUNCTION     0.44     1.72     8.75     0  02:42        1.42
  WS02006234           JUNCTION     0.36     1.64     8.80     0  02:42        1.20
  WS02006235           JUNCTION     0.40     1.68     8.85     0  02:42        1.29
  WS02006238           JUNCTION     0.43     1.72     8.86     0  02:42        1.32
  WS02006239           JUNCTION     0.39     1.65     8.86     0  02:42        1.30
  WS02006240           JUNCTION     0.36     1.56     8.85     0  02:42        1.42
  WS02006242           JUNCTION     0.41     1.55     8.82     0  02:42        1.55
  WS02006243           JUNCTION     0.34     1.48     8.90     0  02:26        1.48
  WS02006245           JUNCTION     0.34     1.56     9.04     0  02:26        1.56
  WS02006247           JUNCTION     0.36     1.47     8.97     0  02:26        1.47
  WS02006248           JUNCTION     0.33     1.10     8.69     0  02:20        1.10
  WS02006249           JUNCTION     0.36     1.09     8.69     0  02:19        1.09
  WS02006251           JUNCTION     0.35     1.43     9.10     0  02:21        1.43
  WS02006252           JUNCTION     0.25     1.50     9.74     0  00:00        1.00
  WS02006256           JUNCTION     0.99     2.35     9.28     0  00:00        2.35
  WSF200               JUNCTION     0.12     0.31     5.54     0  02:41        0.31
  YS02001580           JUNCTION     0.08     1.05     9.59     0  02:19        0.78
  YS02001583           JUNCTION     0.10     1.14     9.64     0  02:19        0.82
  YS02001586           JUNCTION     0.19     1.13     9.30     0  02:19        1.13
  YS02001590           JUNCTION     0.29     1.38     9.24     0  02:19        1.37
  YS02001593           JUNCTION     0.22     1.30     9.16     0  02:19        1.30
  YS02001596           JUNCTION     0.31     1.67     9.09     0  02:26        1.67
  YS02001600           JUNCTION     0.39     1.87     9.00     0  02:19        1.86
  YS02001601           JUNCTION     0.58     2.06     8.90     0  02:18        2.06
  YS02001602           JUNCTION     0.49     1.87     8.77     0  02:19        1.87
  YS02001605           JUNCTION     0.45     1.78     8.68     0  02:21        1.78
  YS02001607           JUNCTION     0.44     1.65     8.49     0  02:27        1.64
  YS02001610           JUNCTION     0.48     1.68     8.48     0  02:19        1.68
  YS02001613           JUNCTION     0.44     1.67     8.51     0  02:21        1.66
  YS02001616           JUNCTION     0.37     1.61     8.52     0  02:21        1.59
  YS02001619           JUNCTION     0.34     1.61     8.54     0  02:21        1.57
  YS02001622           JUNCTION     0.33     1.58     8.48     0  02:21        1.55
  YS02001625           JUNCTION     0.59     1.78     8.38     0  02:21        1.78
  YS02001629           JUNCTION     0.46     1.85     8.40     0  02:22        1.85
  YS02001633           JUNCTION     0.54     2.04     8.50     0  02:23        2.03
  YS02001641           JUNCTION     0.52     1.98     8.42     0  02:23        1.96
  YS02001644           JUNCTION     0.51     1.92     8.35     0  02:22        1.92
  YS02001647           JUNCTION     0.29     1.75     8.36     0  02:23        1.70
  YS02001649           JUNCTION     0.33     1.95     8.34     0  02:24        1.88
  YS02001652           JUNCTION     0.22     1.83     8.43     0  02:24        1.69
  YS02001655           JUNCTION     0.16     1.89     8.74     0  02:22        1.49
  YS02001658           JUNCTION     0.11     1.71     8.85     0  02:23        1.23
  YS02001661           JUNCTION     0.15     1.30     8.70     0  02:24        1.01
  YS02001664           JUNCTION     0.06     0.54     8.47     0  02:24        0.45
  YS02001745           JUNCTION     0.06     0.72     8.24     0  02:24        0.71
  YS02001748           JUNCTION     0.11     1.72     8.80     0  02:23        1.09
  YS02001751           JUNCTION     0.13     1.69     8.57     0  02:23        1.29
  YS02001754           JUNCTION     0.18     1.81     8.42     0  02:23        1.56
  YS02001757           JUNCTION     0.34     2.01     8.27     0  02:23        1.90
  YS02001759           JUNCTION     0.29     1.94     8.30     0  02:23        1.88
  YS02001762           JUNCTION     0.28     1.92     8.32     0  02:23        1.86
  YS02001765           JUNCTION     0.26     1.89     8.34     0  02:23        1.84
  YS02001767           JUNCTION     0.26     1.86     8.35     0  02:22        1.84
  YS02001770           JUNCTION     0.27     1.95     8.44     0  02:21        1.93
  YS02001774           JUNCTION     0.33     2.01     8.43     0  02:21        1.99
  YS02001779           JUNCTION     0.17     1.68     8.37     0  02:22        1.68
  YS02001783           JUNCTION     0.25     1.46     7.61     0  02:23        1.29
  YS02001784           JUNCTION     0.26     1.22     7.29     0  02:23        1.13
  YS02001786           JUNCTION     0.22     0.99     7.02     0  02:23        0.87
  YS02001788           JUNCTION     0.16     0.62     6.60     0  02:24        0.62
  YS02001790           JUNCTION     0.19     0.72     6.37     0  02:25        0.72
  YS02001791           JUNCTION     0.12     0.44     5.91     0  02:24        0.43
  YS02001793           JUNCTION     0.06     0.30     5.13     0  02:26        0.28
  YS02001882           JUNCTION     0.30     1.67     8.38     0  02:22        1.62
  YS02001884           JUNCTION     0.39     1.76     8.38     0  02:22        1.72
  YS02001887           JUNCTION     0.47     1.82     8.36     0  02:22        1.80
  YS02001890           JUNCTION     0.50     1.81     8.32     0  02:22        1.81
  YS02001895           JUNCTION     0.28     1.57     8.32     0  02:26        1.56
  YS02001898           JUNCTION     0.28     1.57     8.31     0  02:26        1.56
  YS02001901           JUNCTION     0.39     1.68     8.29     0  02:26        1.67
  YS02001904           JUNCTION     0.37     1.64     8.27     0  02:26        1.63
  YS02001907           JUNCTION     0.69     1.96     8.25     0  02:23        1.96
  YS02001910           JUNCTION     0.49     1.96     8.47     0  02:23        1.81
  YS02001915           JUNCTION     0.30     1.91     8.63     0  02:23        1.67
  YS02001918           JUNCTION     0.15     1.81     8.88     0  02:23        1.39
  YS02001920           JUNCTION     0.23     2.14     9.15     0  02:23        1.50
  YS02001923           JUNCTION     0.11     2.03     9.29     0  02:23        1.31
  YS02001926           JUNCTION     0.15     1.90     9.35     0  02:23        1.18
  YS02001929           JUNCTION     0.08     1.78     9.47     0  02:23        1.00
  YS02006553           JUNCTION     0.69     2.01     8.30     0  02:23        1.96
  YS02006556           JUNCTION     0.66     2.04     8.36     0  02:23        1.93
  YS02006558           JUNCTION     0.70     2.10     8.37     0  02:23        1.98
  YS02006561           JUNCTION     0.15     1.46     8.12     0  02:23        1.46
  YS02163301           JUNCTION     0.48     1.93     8.45     0  02:23        1.92
  YS02163601           JUNCTION     0.57     2.08     8.48     0  02:23        2.06
  YS02164001           JUNCTION     0.50     2.00     8.46     0  02:23        1.97
  CC-1                 OUTFALL      0.00     0.00     0.00     0  00:00        0.00
  CC-2                 OUTFALL      0.00     0.00     0.00     0  00:00        0.00
  JK-1                 OUTFALL      0.00     0.00     0.00     0  00:00        0.00
  JK-2                 OUTFALL      0.00     0.00     0.00     0  00:00        0.00
  WSC                  OUTFALL      0.22     0.35     1.02     0  03:04        0.35
  CC-storage           STORAGE      0.79     1.54     7.04     0  02:39        1.54
  JK-storage           STORAGE      3.06     4.23     5.03     0  02:30        4.21
  XR-storage           STORAGE      7.87     9.26     7.26     0  08:00        9.26
  
  
  *******************
  Node Inflow Summary
  *******************
  
  -------------------------------------------------------------------------------------------------
                                  Maximum  Maximum                  Lateral       Total        Flow
                                  Lateral    Total  Time of Max      Inflow      Inflow     Balance
                                   Inflow   Inflow   Occurrence      Volume      Volume       Error
  Node                 Type           LPS      LPS  days hr:min    10^6 ltr    10^6 ltr     Percent
  -------------------------------------------------------------------------------------------------
  WS02001211           JUNCTION      7.35   200.34     0  03:07       0.212        5.44       0.611
  WS02001212           JUNCTION      0.00   202.30     0  03:07           0        5.41       0.290
  WS02001213           JUNCTION      0.00   204.42     0  03:42           0        5.39       0.331
  WS02003059           JUNCTION      0.00   209.49     0  03:42           0        5.38       0.593
  WS02003060           JUNCTION     16.53   746.42     0  02:41       0.476        8.64       0.169
  WS02003066           JUNCTION      0.00   534.15     0  03:01           0        2.82       0.059
  WS02003067           JUNCTION      0.00   534.09     0  03:01           0        2.82       0.166
  WS02003069           JUNCTION      0.32   744.15     0  03:02     0.00922        8.63       0.175
  WS02003072           JUNCTION      0.00   743.85     0  03:03           0        8.61       0.237
  WS02003073           JUNCTION      1.82   745.48     0  03:03      0.0524        8.64       0.242
  WS02004138           JUNCTION      0.00   380.00     0  00:00           0        5.25       0.053
  WS02004139           JUNCTION      0.32   191.16     0  00:29     0.00924        5.26       0.509
  WS02004401           JUNCTION      0.00   537.33     0  02:33           0        2.95       0.433
  WS02004402           JUNCTION      0.00   536.12     0  02:33           0        2.93       0.430
  WS02004403           JUNCTION      0.00   535.85     0  02:59           0        2.92       0.412
  WS02004404           JUNCTION      0.16   535.71     0  02:59     0.00467        2.91       0.335
  WS02004405           JUNCTION      0.04   535.75     0  02:59      0.0011         2.9       0.497
  WS02004406           JUNCTION      0.00   535.82     0  02:59           0        2.89       0.827
  WS02004407           JUNCTION      0.00   535.70     0  02:59           0        2.87       0.092
  WS02004409           JUNCTION      0.00   535.63     0  03:00           0        2.86       0.167
  WS02004410           JUNCTION      0.00   535.06     0  03:00           0        2.86       0.212
  WS02004411           JUNCTION      0.00   534.72     0  03:00           0        2.85       0.249
  WS02004412           JUNCTION      0.00   534.45     0  03:00           0        2.85       0.314
  WS02004413           JUNCTION      0.00   534.32     0  03:01           0        2.84       0.538
  WS02006109           JUNCTION      1.23   565.41     0  02:42      0.0354        3.01       0.399
  WS02006110           JUNCTION      0.00   565.67     0  02:42           0           3       0.336
  WS02006111           JUNCTION      0.00   563.17     0  03:23           0        2.99       0.065
  WS02006112           JUNCTION      0.00   543.69     0  02:44           0        2.98       0.693
  WS02006113           JUNCTION      0.00   575.46     0  02:42           0        2.99       0.123
  WS02006115           JUNCTION      0.00   554.84     0  02:50           0        2.96       0.319
  WS02006116           JUNCTION      0.00   540.77     0  02:50           0        2.95       0.251
  WS02006228           JUNCTION      0.00   563.86     0  02:42           0        2.98       0.209
  WS02006229           JUNCTION      0.00   563.52     0  02:42           0        2.99       0.247
  WS02006230           JUNCTION     10.28   591.64     0  02:21       0.296           3       0.208
  WS02006231           JUNCTION      0.00   578.56     0  02:48           0         2.7      -0.019
  WS02006232           JUNCTION      0.00   576.85     0  02:48           0        2.71       0.593
  WS02006234           JUNCTION      0.00   570.47     0  02:48           0        2.71      -0.306
  WS02006235           JUNCTION      0.00   562.52     0  02:36           0        2.81       0.450
  WS02006238           JUNCTION      0.00   424.52     0  02:45           0        2.09      -0.102
  WS02006239           JUNCTION      0.00   423.14     0  02:20           0        2.05      -0.004
  WS02006240           JUNCTION      0.00   421.25     0  02:20           0           2      -0.033
  WS02006242           JUNCTION      0.00   420.82     0  02:20           0        1.96      -0.116
  WS02006243           JUNCTION      0.00   420.81     0  02:20           0        1.94      -0.045
  WS02006245           JUNCTION      0.00   420.14     0  02:20           0        1.95       0.514
  WS02006247           JUNCTION      0.00   419.33     0  02:20           0        1.95      -0.017
  WS02006248           JUNCTION      0.00   421.05     0  02:45           0        1.94      -0.139
  WS02006249           JUNCTION      0.00   458.97     0  00:00           0        2.09       0.641
  WS02006251           JUNCTION      0.08   409.15     0  03:30     0.00222         2.1       0.002
  WS02006252           JUNCTION      0.00   400.00     0  00:00           0        2.09      -0.376
  WS02006256           JUNCTION      0.00   300.00     0  00:00           0        1.07      -0.969
  WSF200               JUNCTION      0.00   534.19     0  03:01           0        2.82       0.031
  YS02001580           JUNCTION      0.00   112.11     0  02:19           0     0.00387      -6.013
  YS02001583           JUNCTION      0.00   157.92     0  02:19           0      0.0148      -5.112
  YS02001586           JUNCTION    496.34   496.44     0  02:26       0.981       0.993       0.126
  YS02001590           JUNCTION      0.00   318.34     0  02:26           0       0.899      -0.028
  YS02001593           JUNCTION      0.00   318.20     0  02:26           0       0.899       0.017
  YS02001596           JUNCTION      0.00   318.09     0  02:26           0       0.899      -0.013
  YS02001600           JUNCTION      0.00   318.41     0  02:26           0       0.899       0.012
  YS02001601           JUNCTION    862.35  1179.79     0  02:25        1.34        2.24       0.033
  YS02001602           JUNCTION      0.00   510.25     0  02:18           0        1.66       0.020
  YS02001605           JUNCTION      0.00   510.02     0  02:18           0        1.61       0.027
  YS02001607           JUNCTION      0.00   509.61     0  02:18           0        1.61       0.114
  YS02001610           JUNCTION      0.00   511.56     0  02:18           0        1.61       0.135
  YS02001613           JUNCTION      0.00   513.07     0  02:18           0        1.42       0.105
  YS02001616           JUNCTION      0.00   513.64     0  02:18           0        1.42       0.024
  YS02001619           JUNCTION    861.66   922.98     0  02:20        1.51        2.93      -0.003
  YS02001622           JUNCTION      0.00   922.79     0  02:20           0        2.93       0.003
  YS02001625           JUNCTION      0.00   966.67     0  02:27           0        2.95       0.306
  YS02001629           JUNCTION      0.00   923.56     0  02:21           0        2.56       0.030
  YS02001633           JUNCTION    666.66  1356.75     0  02:21        1.01        3.54       0.097
  YS02001641           JUNCTION      0.00  1354.04     0  02:21           0        3.52       0.078
  YS02001644           JUNCTION    573.06  1724.55     0  02:21       0.825        4.34       0.075
  YS02001647           JUNCTION      0.00  1723.86     0  02:21           0        4.29       0.010
  YS02001649           JUNCTION      0.00  1937.93     0  02:20           0        5.07       0.006
  YS02001652           JUNCTION      0.00   701.23     0  02:25           0       0.786      -0.096
  YS02001655           JUNCTION      0.15   701.00     0  02:25     0.00443       0.786       0.021
  YS02001658           JUNCTION      0.00   699.86     0  02:25           0        0.78      -0.038
  YS02001661           JUNCTION      0.00   765.62     0  02:25           0        0.78      -0.005
  YS02001664           JUNCTION    585.15   585.15     0  02:25        0.78        0.78      -0.011
  YS02001745           JUNCTION    353.60   381.96     0  02:23       0.452       0.453       0.279
  YS02001748           JUNCTION      0.04   556.30     0  02:23      0.0013       0.455      -0.472
  YS02001751           JUNCTION      0.01   380.86     0  02:24    0.000317       0.465       0.168
  YS02001754           JUNCTION      0.26   380.79     0  02:24     0.00749       0.481      -0.225
  YS02001757           JUNCTION      0.00  3104.50     0  02:24           0         7.2       0.019
  YS02001759           JUNCTION    516.06  1208.33     0  02:25        0.66        1.65      -0.008
  YS02001762           JUNCTION      0.00   700.53     0  02:25           0       0.989      -0.001
  YS02001765           JUNCTION      0.00   699.71     0  02:25           0       0.989       0.034
  YS02001767           JUNCTION      0.54   698.72     0  02:25      0.0154       0.989       0.007
  YS02001770           JUNCTION    705.47   705.47     0  02:25       0.976        1.02      -0.031
  YS02001774           JUNCTION      0.00   392.31     0  02:22           0      0.0609       1.858
  YS02001779           JUNCTION      0.01   400.17     0  02:22    0.000144      0.0191      -2.928
  YS02001783           JUNCTION      0.00  1154.32     0  02:24           0        2.69       0.006
  YS02001784           JUNCTION      1.06  1155.84     0  02:24      0.0305        2.72       0.018
  YS02001786           JUNCTION      0.06  1155.78     0  02:24     0.00162        2.72       0.025
  YS02001788           JUNCTION      0.07  1155.77     0  02:24     0.00204        2.72       0.010
  YS02001790           JUNCTION      0.15  1170.24     0  02:23     0.00446        2.73       0.019
  YS02001791           JUNCTION      0.00  1277.57     0  02:24           0        2.73      -0.012
  YS02001793           JUNCTION      0.00  1237.48     0  02:23           0        2.73       0.007
  YS02001882           JUNCTION      0.00    50.72     0  02:21           0      0.0123       5.985
  YS02001884           JUNCTION      0.00    74.03     0  02:20           0      0.0481       5.725
  YS02001887           JUNCTION    546.90   546.90     0  02:25        0.69       0.723       0.618
  YS02001890           JUNCTION      0.00   546.91     0  02:25           0       0.682       0.749
  YS02001895           JUNCTION      0.00   509.98     0  02:25           0       0.672       0.196
  YS02001898           JUNCTION      0.00   508.86     0  02:25           0       0.671       0.083
  YS02001901           JUNCTION      0.00   510.36     0  02:25           0       0.673       0.479
  YS02001904           JUNCTION      0.00   509.83     0  02:25           0       0.676       0.419
  YS02001907           JUNCTION      0.00  1506.54     0  02:24           0        2.07       0.877
  YS02001910           JUNCTION      0.00  1010.85     0  02:24           0         1.4       0.509
  YS02001915           JUNCTION    579.43  1010.62     0  02:24       0.843        1.44       0.113
  YS02001918           JUNCTION      0.00   452.09     0  02:24           0       0.621      -0.018
  YS02001920           JUNCTION      2.87   451.58     0  02:24      0.0827       0.605       0.144
  YS02001923           JUNCTION      0.04   421.28     0  02:23     0.00109       0.507      -0.128
  YS02001926           JUNCTION      0.05   550.62     0  02:23      0.0015       0.487      -0.188
  YS02001929           JUNCTION    296.88   362.39     0  02:23       0.474       0.476      -0.056
  YS02006553           JUNCTION      0.00   798.22     0  02:33           0        1.78       0.655
  YS02006556           JUNCTION      0.00   798.62     0  02:33           0        1.79       0.452
  YS02006558           JUNCTION    704.78  1163.83     0  02:22       0.954        2.72       0.128
  YS02006561           JUNCTION      0.00  1162.69     0  02:22           0        2.69      -0.001
  YS02163301           JUNCTION      0.00   924.16     0  02:21           0        2.55       0.057
  YS02163601           JUNCTION      0.11  1357.12     0  02:21     0.00317        3.52       0.138
  YS02164001           JUNCTION      0.00  1355.93     0  02:21           0        3.52       0.068
  CC-1                 OUTFALL       0.00   683.00     0  00:00           0        3.04       0.000
  CC-2                 OUTFALL       0.00   683.00     0  00:00           0        2.83       0.000
  JK-1                 OUTFALL       0.00  1000.00     0  00:00           0        1.63       0.000
  JK-2                 OUTFALL       0.00  1000.00     0  00:00           0      0.0484       0.000
  WSC                  OUTFALL       0.00   745.15     0  03:04           0        8.62       0.000
  CC-storage           STORAGE       0.00  3104.09     0  02:24           0        9.41      -0.256
  JK-storage           STORAGE       0.00  1289.56     0  02:23           0        2.88      -0.110
  XR-storage           STORAGE     200.00   200.00     0  00:00        5.76        6.36       0.001
  
  
  **********************
  Node Surcharge Summary
  **********************
  
  Surcharging occurs when water rises above the top of the highest conduit.
  ---------------------------------------------------------------------
                                               Max. Height   Min. Depth
                                   Hours       Above Crown    Below Rim
  Node                 Type      Surcharged         Meters       Meters
  ---------------------------------------------------------------------
  WS02006109           JUNCTION        1.18          0.817        1.003
  WS02006110           JUNCTION        0.44          1.206        0.644
  WS02006112           JUNCTION        0.51          0.097        1.583
  WS02006228           JUNCTION        1.18          0.779        1.421
  WS02006229           JUNCTION        1.19          0.859        1.591
  WS02006230           JUNCTION        0.45          0.922        0.648
  WS02006231           JUNCTION        0.55          1.530        0.000
  WS02006232           JUNCTION        1.24          1.015        0.465
  WS02006234           JUNCTION        0.75          0.924        0.316
  WS02006235           JUNCTION        1.16          0.973        0.317
  WS02006238           JUNCTION        1.20          0.996        0.434
  WS02006239           JUNCTION        1.17          0.914        0.376
  WS02006240           JUNCTION        1.18          0.851        0.539
  WS02006242           JUNCTION        1.19          0.820        0.000
  WS02006243           JUNCTION        1.17          0.770        0.000
  WS02006245           JUNCTION        1.17          0.850        0.000
  WS02006247           JUNCTION        1.17          0.760        0.000
  WS02006248           JUNCTION        1.17          0.380        0.000
  WS02006249           JUNCTION        1.16          0.390        0.000
  WS02006251           JUNCTION        0.60          0.401        0.779
  WS02006252           JUNCTION        1.35          1.100        0.000
  WS02006256           JUNCTION        3.90          2.050        0.000
  YS02001580           JUNCTION        0.32          0.450        0.000
  YS02001583           JUNCTION        0.33          0.500        0.000
  YS02001586           JUNCTION        0.42          0.510        0.000
  YS02001590           JUNCTION        0.48          0.733        0.017
  YS02001593           JUNCTION        0.49          0.681        0.159
  YS02001596           JUNCTION        0.57          0.938        0.132
  YS02001600           JUNCTION        0.68          1.187        0.003
  YS02001601           JUNCTION        0.99          1.440        0.000
  YS02001602           JUNCTION        0.89          1.270        0.000
  YS02001605           JUNCTION        0.84          1.178        0.002
  YS02001607           JUNCTION        0.45          0.646        0.034
  YS02001610           JUNCTION        0.47          0.680        0.000
  YS02001613           JUNCTION        0.45          0.670        0.030
  YS02001616           JUNCTION        0.41          0.610        0.000
  YS02001619           JUNCTION        0.40          0.606        0.004
  YS02001622           JUNCTION        0.40          0.575        0.045
  YS02001625           JUNCTION        0.54          0.780        0.000
  YS02001629           JUNCTION        0.37          0.470        0.000
  YS02001633           JUNCTION        0.56          1.023        0.037
  YS02001641           JUNCTION        0.50          0.982        0.118
  YS02001644           JUNCTION        0.47          0.920        0.000
  YS02001647           JUNCTION        0.31          0.746        0.154
  YS02001649           JUNCTION        0.39          0.954        0.096
  YS02001652           JUNCTION        0.27          0.804        0.326
  YS02001655           JUNCTION        0.18          0.891        0.309
  YS02001658           JUNCTION        0.08          0.706        0.594
  YS02001661           JUNCTION        0.01          0.230        1.160
  YS02001748           JUNCTION        0.03          0.645        0.545
  YS02001751           JUNCTION        0.12          0.692        0.508
  YS02001754           JUNCTION        0.21          0.762        0.388
  YS02001757           JUNCTION        0.43          1.013        0.197
  YS02001759           JUNCTION        0.36          0.941        0.269
  YS02001762           JUNCTION        0.34          0.925        0.225
  YS02001765           JUNCTION        0.31          0.892        0.208
  YS02001767           JUNCTION        0.29          0.864        0.166
  YS02001770           JUNCTION        0.28          0.920        0.000
  YS02001774           JUNCTION        0.32          1.006        0.044
  YS02001779           JUNCTION        0.21          0.680        0.000
  YS02001783           JUNCTION        0.29          0.664        0.936
  YS02001784           JUNCTION        0.27          0.418        1.072
  YS02001786           JUNCTION        0.19          0.186        1.244
  YS02001882           JUNCTION        0.25          0.668        0.162
  YS02001884           JUNCTION        0.26          0.699        0.171
  YS02001887           JUNCTION        0.29          0.770        0.180
  YS02001890           JUNCTION        0.30          0.760        0.000
  YS02001895           JUNCTION        0.24          0.569        0.181
  YS02001898           JUNCTION        0.24          0.545        0.195
  YS02001901           JUNCTION        0.28          0.684        0.186
  YS02001904           JUNCTION        0.27          0.641        0.209
  YS02001907           JUNCTION        0.47          0.950        0.000
  YS02001910           JUNCTION        0.32          0.964        0.136
  YS02001915           JUNCTION        0.25          0.910        0.090
  YS02001918           JUNCTION        0.18          0.810        0.000
  YS02001920           JUNCTION        0.19          1.140        0.000
  YS02001923           JUNCTION        0.01          0.820        0.000
  YS02001926           JUNCTION        0.01          0.900        0.000
  YS02001929           JUNCTION        0.01          0.780        0.000
  YS02006553           JUNCTION        0.48          1.015        0.175
  YS02006556           JUNCTION        0.40          1.004        0.346
  YS02006558           JUNCTION        0.38          1.003        0.397
  YS02006561           JUNCTION        0.15          0.664        0.486
  YS02163301           JUNCTION        0.54          0.931        0.099
  YS02163601           JUNCTION        0.59          1.080        0.000
  YS02164001           JUNCTION        0.51          1.000        0.100
  
  
  *********************
  Node Flooding Summary
  *********************
  
  Flooding refers to all water that overflows a node, whether it ponds or not.
  --------------------------------------------------------------------------
                                                             Total   Maximum
                                 Maximum   Time of Max       Flood    Ponded
                        Hours       Rate    Occurrence      Volume     Depth
  Node                 Flooded       LPS   days hr:min    10^6 ltr    Meters
  --------------------------------------------------------------------------
  WS02006231              0.01     33.94      0  02:20       0.000     0.000
  WS02006242              0.01      4.04      0  02:48       0.000     0.000
  WS02006243              0.01      1.81      0  02:49       0.000     0.000
  WS02006245              0.01      2.21      0  02:26       0.000     0.000
  WS02006247              0.01      2.44      0  02:26       0.000     0.000
  WS02006248              0.01     18.56      0  02:20       0.000     0.000
  WS02006249              0.59     86.64      0  02:19       0.138     0.000
  WS02006252              0.01    272.04      0  03:30       0.000     0.000
  WS02006256              0.99    293.19      0  00:00       0.302     0.000
  YS02001580              0.01     80.97      0  02:19       0.000     0.000
  YS02001583              0.01     33.98      0  02:19       0.000     0.000
  YS02001586              0.24    179.04      0  02:26       0.082     0.000
  YS02001601              0.37    781.80      0  02:25       0.573     0.000
  YS02001602              0.28     62.09      0  02:26       0.056     0.000
  YS02001610              0.24    347.16      0  02:26       0.182     0.000
  YS02001616              0.01      2.81      0  02:21       0.000     0.000
  YS02001625              0.22    966.65      0  02:27       0.394     0.000
  YS02001629              0.05     96.29      0  02:24       0.011     0.000
  YS02001644              0.06    347.81      0  02:25       0.044     0.000
  YS02001770              0.01     64.44      0  02:21       0.000     0.000
  YS02001779              0.03    304.93      0  02:22       0.003     0.000
  YS02001890              0.06     44.69      0  02:25       0.005     0.000
  YS02001907              0.14   1041.95      0  02:24       0.275     0.000
  YS02001918              0.01    180.29      0  02:23       0.002     0.000
  YS02001920              0.01     42.94      0  02:23       0.000     0.000
  YS02001923              0.01     76.83      0  02:23       0.000     0.000
  YS02001926              0.01    242.73      0  02:23       0.001     0.000
  YS02001929              0.01     26.53      0  02:23       0.000     0.000
  YS02163601              0.01      1.35      0  02:23       0.000     0.000
  
  
  **********************
  Storage Volume Summary
  **********************
  
  ------------------------------------------------------------------------------------------------
                         Average    Avg   Evap  Exfil     Maximum    Max    Time of Max    Maximum
                          Volume   Pcnt   Pcnt   Pcnt      Volume   Pcnt     Occurrence    Outflow
  Storage Unit           1000 m³   Full   Loss   Loss     1000 m³   Full    days hr:min        LPS
  ------------------------------------------------------------------------------------------------
  CC-storage               2.192   34.2    0.0    0.0       4.296   67.0       0  02:39    1783.53
  JK-storage               0.153   52.7    0.0    0.0       0.213   73.0       0  02:30    2300.00
  XR-storage               0.944   65.6    0.0    0.0       1.111   77.2       0  08:00     380.00
  
  
  ***********************
  Outfall Loading Summary
  ***********************
  
  -----------------------------------------------------------
                         Flow       Avg       Max       Total
                         Freq      Flow      Flow      Volume
  Outfall Node           Pcnt       LPS       LPS    10^6 ltr
  -----------------------------------------------------------
  CC-1                  25.76    683.00    683.00       3.042
  CC-2                  23.65    683.00    683.00       2.827
  JK-1                  12.94   1000.00   1000.00       1.633
  JK-2                   0.25   1000.00   1000.00       0.048
  WSC                   99.93    350.04    745.15       8.623
  -----------------------------------------------------------
  System                32.51   3716.04   3366.23      16.174
  
  
  ********************
  Link Flow Summary
  ********************
  
  -----------------------------------------------------------------------------
                                 Maximum  Time of Max   Maximum    Max/    Max/
                                  |Flow|   Occurrence   |Veloc|    Full    Full
  Link                 Type          LPS  days hr:min     m/sec    Flow   Depth
  -----------------------------------------------------------------------------
  1                    CONDUIT    745.15     0  03:04      3.07    0.26    0.35
  WS02001211WS02001212 CONDUIT    202.30     0  03:07      0.54    0.15    0.51
  WS02001212WS02001213 CONDUIT    204.42     0  03:42      1.04    0.32    0.36
  WS02001213WS02003059 CONDUIT    209.49     0  03:42      0.47    0.35    0.67
  WS02003059WS02003060 CONDUIT    216.64     0  03:43      0.67    0.14    0.58
  WS02003060WS02003069 CONDUIT    743.83     0  03:02      1.77    0.29    0.40
  WS02003066WSF200     CONDUIT    534.19     0  03:01      2.73    0.09    0.23
  WS02003067WS02003066 CONDUIT    534.15     0  03:01      1.20    0.17    0.42
  WS02003069WS02003072 CONDUIT    743.85     0  03:03      1.51    0.36    0.45
  WS02003072WS02003073 CONDUIT    743.66     0  03:03      1.59    1.61    0.43
  WS02004138WS02004139 CONDUIT    190.84     0  00:29      2.17    0.04    0.33
  WS02004139WS02001211 CONDUIT    192.99     0  03:07      0.54    0.24    0.47
  WS02004401WS02004402 CONDUIT    536.12     0  02:33      0.97    0.64    0.86
  WS02004402WS02004403 CONDUIT    535.85     0  02:59      0.97    0.77    0.88
  WS02004403WS02004404 CONDUIT    535.55     0  02:59      0.92    0.39    0.93
  WS02004404WS02004405 CONDUIT    535.71     0  02:59      1.08    5.25    0.96
  WS02004405WS02004406 CONDUIT    535.82     0  02:59      0.99    1.06    0.95
  WS02004406WS02004407 CONDUIT    535.70     0  02:59      1.04    0.24    0.63
  WS02004407WS02004409 CONDUIT    535.63     0  03:00      1.50    0.19    0.48
  WS02004409WS02004410 CONDUIT    535.06     0  03:00      0.98    0.69    0.67
  WS02004410WS02004411 CONDUIT    534.72     0  03:00      0.94    0.73    0.68
  WS02004411WS02004412 CONDUIT    534.45     0  03:00      0.92    0.76    0.69
  WS02004412WS02004413 CONDUIT    534.32     0  03:01      0.82    0.36    0.78
  WS02004413WS02003067 CONDUIT    534.09     0  03:01      1.11    0.23    0.59
  WS02006109WS02006110 CONDUIT    565.67     0  02:42      1.13    1.09    1.00
  WS02006110WS02006113 CONDUIT    575.46     0  02:42      1.40    0.52    0.79
  WS02006111WS02006112 CONDUIT    543.69     0  02:44      1.82    0.26    0.67
  WS02006112WS02006115 CONDUIT    554.84     0  02:50      0.79    0.33    0.87
  WS02006113WS02006111 CONDUIT    563.17     0  03:23      2.47    0.68    0.46
  WS02006115WS02006116 CONDUIT    540.77     0  02:50      0.97    0.69    0.76
  WS02006116WS02004401 CONDUIT    537.33     0  02:33      0.98    0.74    0.84
  WS02006228WS02006109 CONDUIT    564.18     0  02:42      1.12    2.47    1.00
  WS02006229WS02006228 CONDUIT    563.86     0  02:42      1.15    1.87    1.00
  WS02006230WS02006229 CONDUIT    563.52     0  02:42      1.46   12.54    1.00
  WS02006231WS02006230 CONDUIT    581.36     0  02:21      1.59    8.82    1.00
  WS02006232WS02006231 CONDUIT    578.56     0  02:48      1.52    1.21    1.00
  WS02006234WS02006232 CONDUIT    576.85     0  02:48      1.50    1.17    1.00
  WS02006235WS02006234 CONDUIT    570.47     0  02:48      1.48    6.02    1.00
  WS02006238WS02006235 CONDUIT    425.50     0  02:40      1.58    0.95    1.00
  WS02006239WS02006238 CONDUIT    424.52     0  02:45      1.11    1.36    1.00
  WS02006240WS02006239 CONDUIT    423.14     0  02:20      1.24    1.33    1.00
  WS02006242WS02006240 CONDUIT    421.25     0  02:20      1.12    1.67    1.00
  WS02006243WS02006242 CONDUIT    420.82     0  02:20      1.39    0.90    1.00
  WS02006245WS02006243 CONDUIT    420.81     0  02:20      1.45    1.24    1.00
  WS02006247WS02006245 CONDUIT    420.14     0  02:20      1.44    3.33    1.00
  WS02006248WS02006247 CONDUIT    419.33     0  02:20      1.45    0.91    1.00
  WS02006249WS02006248 CONDUIT    421.05     0  02:45      1.37    2.31    1.00
  WS02006251WS02006249 CONDUIT    458.97     0  00:00      1.99    1.32    1.00
  WS02006252WS02006251 CONDUIT    405.92     0  02:21     29.23    1.49    1.00
  WS02006256WS02006235 CONDUIT    288.91     0  00:00      4.23    3.06    1.00
  WSF200WS02003060     CONDUIT    534.27     0  03:02      1.76    0.12    0.31
  YS02001580YS02001583 CONDUIT    112.11     0  02:19      0.65    0.43    1.00
  YS02001583YS02001586 CONDUIT    156.39     0  02:19      0.65    0.24    1.00
  YS02001586YS02001590 CONDUIT    318.34     0  02:26      1.27    0.56    1.00
  YS02001590YS02001593 CONDUIT    318.20     0  02:26      1.13    2.00    1.00
  YS02001593YS02001596 CONDUIT    318.09     0  02:26      1.73    0.50    1.00
  YS02001596YS02001600 CONDUIT    318.41     0  02:26      1.24    0.62    1.00
  YS02001600YS02001601 CONDUIT    318.16     0  02:26      1.13    0.55    1.00
  YS02001601YS02001602 CONDUIT    510.25     0  02:18      1.80    1.84    1.00
  YS02001602YS02001605 CONDUIT    510.02     0  02:18      1.80   10.79    1.00
  YS02001605YS02001607 CONDUIT    509.61     0  02:18      1.80    2.79    1.00
  YS02001607YS02001610 CONDUIT    511.56     0  02:18      0.65    0.49    1.00
  YS02001610YS02001613 CONDUIT    513.07     0  02:18      0.65    0.59    1.00
  YS02001613YS02001616 CONDUIT    513.64     0  02:18      0.66    0.44    1.00
  YS02001616YS02001619 CONDUIT    500.36     0  02:18      0.66    0.87    1.00
  YS02001619YS02001622 CONDUIT    922.79     0  02:20      1.18    1.36    1.00
  YS02001622YS02001625 CONDUIT    922.50     0  02:21      1.17    0.49    1.00
  YS02001625YS02001629 CONDUIT    923.56     0  02:21      1.18    0.44    1.00
  YS02001629YS02163301 CONDUIT    924.16     0  02:21      1.18    1.14    1.00
  YS02001633YS02163601 CONDUIT   1357.01     0  02:21      1.73    1.42    1.00
  YS02001641YS02001644 CONDUIT   1352.57     0  02:21      1.72    4.37    1.00
  YS02001644YS02001647 CONDUIT   1723.86     0  02:21      2.21    1.01    1.00
  YS02001647YS02001649 CONDUIT   1723.35     0  02:21      2.32    0.91    1.00
  YS02001649YS02001757 CONDUIT   1901.20     0  02:20      2.44    1.15    1.00
  YS02001652YS02001649 CONDUIT    701.09     0  02:25      0.89    0.35    1.00
  YS02001655YS02001652 CONDUIT    701.23     0  02:25      1.29    0.34    1.00
  YS02001658YS02001655 CONDUIT    700.85     0  02:25      1.90    0.30    1.00
  YS02001661YS02001658 CONDUIT    699.86     0  02:25      2.27    0.27    1.00
  YS02001664YS02001661 CONDUIT    765.62     0  02:25      2.23    0.24    0.75
  YS02001745YS02001748 CONDUIT    556.26     0  02:23      2.08    0.21    0.86
  YS02001748YS02001751 CONDUIT    380.85     0  02:24      1.63    0.19    1.00
  YS02001751YS02001754 CONDUIT    380.53     0  02:24      1.43    0.18    1.00
  YS02001754YS02001757 CONDUIT    380.57     0  02:24      0.48    0.15    1.00
  YS02001757CaochengTiaoxuchi CONDUIT   3104.09     0  02:24      3.95    1.34    1.00
  YS02001759YS02001757 CONDUIT   1208.23     0  02:25      1.54    0.86    1.00
  YS02001762YS02001759 CONDUIT    701.19     0  02:25      0.89    0.81    1.00
  YS02001765YS02001762 CONDUIT    700.53     0  02:25      0.89    0.66    1.00
  YS02001767YS02001765 CONDUIT    699.71     0  02:25      0.89    0.88    1.00
  YS02001770YS02001767 CONDUIT    698.19     0  02:25      0.89    2.77    1.00
  YS02001774YS02001770 CONDUIT    392.31     0  02:22      0.50    0.25    1.00
  YS02001779YS02001774 CONDUIT    400.16     0  02:22      0.52    0.20    1.00
  YS02001783YS02001784 CONDUIT   1154.78     0  02:24      2.30    1.59    1.00
  YS02001784YS02001785 CONDUIT   1155.72     0  02:24      2.30    2.69    1.00
  YS02001786YS02001788 CONDUIT   1155.69     0  02:24      2.47    2.23    0.89
  YS02001788YS02001790 CONDUIT   1170.08     0  02:23      2.72    0.86    0.84
  YS02001790YS02001791 CONDUIT   1277.57     0  02:24      3.41    1.39    0.70
  YS02001791YS02001793 CONDUIT   1237.48     0  02:23      6.72    0.53    0.44
  YS02001793JiankangQianchi CONDUIT   1289.56     0  02:23      2.57    0.10    0.65
  YS02001882YS02001884 CONDUIT     50.72     0  02:21      0.09    0.06    1.00
  YS02001884YS02001887 CONDUIT     74.03     0  02:20      0.09    0.10    1.00
  YS02001887YS02001890 CONDUIT    546.91     0  02:25      0.70    0.94    1.00
  YS02001890YS02001895 CONDUIT    509.98     0  02:25      0.65    0.24    1.00
  YS02001895YS02001898 CONDUIT    508.86     0  02:25      0.65    0.88    1.00
  YS02001898YS02001901 CONDUIT    510.36     0  02:25      0.65    0.33    1.00
  YS02001901YS02001904 CONDUIT    509.83     0  02:25      0.65    0.79    1.00
  YS02001904YS02001907 CONDUIT    510.85     0  02:25      0.65    0.18    1.00
  YS02001907YS02006553 CONDUIT    798.22     0  02:33      0.89    0.94    1.00
  YS02001910YS02001907 CONDUIT   1011.08     0  02:24      1.29    0.57    1.00
  YS02001915YS02001910 CONDUIT   1010.85     0  02:24      1.29    0.50    1.00
  YS02001918YS02001915 CONDUIT    453.77     0  02:24      0.58    0.25    1.00
  YS02001920YS02001918 CONDUIT    452.09     0  02:24      0.64    0.44    1.00
  YS02001923YS02001920 CONDUIT    448.71     0  02:24      0.71    0.20    1.00
  YS02001926YS02001923 CONDUIT    411.71     0  02:24      0.97    0.59    1.00
  YS02001929YS02001926 CONDUIT    409.36     0  02:24      1.14    0.19    1.00
  YS02006553YS02006556 CONDUIT    798.62     0  02:33      1.02    0.68    1.00
  YS02006556YS02006558 CONDUIT    801.42     0  02:33      1.02    0.63    1.00
  YS02006558YS02006561 CONDUIT   1162.69     0  02:22      4.11    2.57    1.00
  YS02006561YS02001783 CONDUIT   1154.32     0  02:24      2.30    0.60    1.00
  YS02163301YS02001633 CONDUIT    925.20     0  02:21      1.18    0.87    1.00
  YS02163601YS02164001 CONDUIT   1355.93     0  02:21      1.73    1.20    1.00
  YS02164001YS02001641 CONDUIT   1354.04     0  02:21      1.72    1.85    1.00
  CC-R1                PUMP       683.00     0  00:00              1.00
  CC-R2                PUMP       683.00     0  00:00              1.00
  CC-S1                PUMP       200.00     0  00:00              1.00
  CC-S2                PUMP       200.00     0  00:00              1.00
  JK-R1                PUMP      1000.00     0  00:00              1.00
  JK-R2                PUMP      1000.00     0  00:00              1.00
  JK-S                 PUMP       300.00     0  00:00              1.00
  XR-1                 PUMP        95.00     0  00:00              1.00
  XR-2                 PUMP        95.00     0  00:00              1.00
  XR-3                 PUMP        95.00     0  00:00              1.00
  XR-4                 PUMP        95.00     0  00:00              1.00
  
  
  ***************************
  Flow Classification Summary
  ***************************
  
  -------------------------------------------------------------------------------------
                      Adjusted    ---------- Fraction of Time in Flow Class ---------- 
                       /Actual         Up    Down  Sub   Sup   Up    Down  Norm  Inlet 
  Conduit               Length    Dry  Dry   Dry   Crit  Crit  Crit  Crit  Ltd   Ctrl  
  -------------------------------------------------------------------------------------
  1                       1.00   0.00  0.00  0.00  0.00  1.00  0.00  0.00  0.16  0.00
  WS02001211WS02001212    1.00   0.00  0.02  0.00  0.98  0.00  0.00  0.00  0.00  0.00
  WS02001212WS02001213    1.00   0.02  0.00  0.00  0.17  0.00  0.80  0.00  0.00  0.00
  WS02001213WS02003059    1.00   0.00  0.01  0.00  0.99  0.00  0.00  0.00  0.00  0.00
  WS02003059WS02003060    1.00   0.00  0.00  0.00  1.00  0.00  0.00  0.00  0.03  0.00
  WS02003060WS02003069    1.00   0.00  0.00  0.00  0.98  0.02  0.00  0.00  0.71  0.00
  WS02003066WSF200        1.00   0.13  0.00  0.00  0.00  0.87  0.00  0.00  0.79  0.00
  WS02003067WS02003066    1.00   0.10  0.02  0.00  0.88  0.00  0.00  0.00  0.00  0.00
  WS02003069WS02003072    1.00   0.00  0.00  0.00  1.00  0.00  0.00  0.00  0.80  0.00
  WS02003072WS02003073    1.00   0.00  0.00  0.00  0.00  0.00  0.00  1.00  0.00  0.00
  WS02004138WS02004139    1.00   0.00  0.00  0.00  0.97  0.01  0.00  0.02  0.98  0.00
  WS02004139WS02001211    1.00   0.00  0.00  0.00  0.99  0.00  0.00  0.00  0.00  0.00
  WS02004401WS02004402    1.00   0.02  0.00  0.00  0.98  0.00  0.00  0.00  0.00  0.00
  WS02004402WS02004403    1.00   0.02  0.00  0.00  0.97  0.00  0.00  0.00  0.00  0.00
  WS02004403WS02004404    1.00   0.00  0.03  0.00  0.97  0.00  0.00  0.00  0.00  0.00
  WS02004404WS02004405    1.00   0.00  0.00  0.00  1.00  0.00  0.00  0.00  0.00  0.00
  WS02004405WS02004406    1.00   0.00  0.00  0.00  1.00  0.00  0.00  0.00  0.00  0.00
  WS02004406WS02004407    1.00   0.00  0.05  0.00  0.95  0.00  0.00  0.00  0.00  0.00
  WS02004407WS02004409    1.00   0.05  0.00  0.00  0.94  0.01  0.00  0.00  0.94  0.00
  WS02004409WS02004410    1.00   0.05  0.00  0.00  0.95  0.00  0.00  0.00  0.03  0.00
  WS02004410WS02004411    1.00   0.05  0.00  0.00  0.95  0.00  0.00  0.00  0.01  0.00
  WS02004411WS02004412    1.00   0.05  0.00  0.00  0.95  0.00  0.00  0.00  0.00  0.00
  WS02004412WS02004413    1.00   0.05  0.00  0.00  0.94  0.00  0.00  0.00  0.01  0.00
  WS02004413WS02003067    1.00   0.06  0.04  0.00  0.00  0.00  0.90  0.00  0.00  0.00
  WS02006109WS02006110    1.00   0.00  0.01  0.00  0.98  0.00  0.01  0.00  0.00  0.00
  WS02006110WS02006113    1.00   0.01  0.01  0.00  0.98  0.00  0.00  0.00  0.00  0.00
  WS02006111WS02006112    1.00   0.02  0.00  0.00  0.98  0.00  0.00  0.00  0.98  0.00
  WS02006112WS02006115    1.00   0.02  0.00  0.00  0.97  0.00  0.00  0.00  0.00  0.00
  WS02006113WS02006111    1.00   0.02  0.00  0.00  0.00  0.98  0.00  0.00  0.08  0.00
  WS02006115WS02006116    1.00   0.02  0.00  0.00  0.97  0.00  0.00  0.01  0.00  0.00
  WS02006116WS02004401    1.00   0.02  0.00  0.00  0.98  0.00  0.00  0.00  0.00  0.00
  WS02006228WS02006109    1.00   0.00  0.00  0.00  1.00  0.00  0.00  0.00  0.00  0.00
  WS02006229WS02006228    1.00   0.00  0.00  0.00  0.99  0.00  0.00  0.01  0.00  0.00
  WS02006230WS02006229    1.00   0.00  0.00  0.00  0.99  0.00  0.00  0.01  0.03  0.00
  WS02006231WS02006230    1.00   0.00  0.00  0.00  0.16  0.00  0.84  0.00  0.00  0.00
  WS02006232WS02006231    1.00   0.00  0.00  0.00  0.98  0.00  0.01  0.00  0.00  0.00
  WS02006234WS02006232    1.00   0.00  0.00  0.00  1.00  0.00  0.00  0.00  0.37  0.00
  WS02006235WS02006234    1.00   0.00  0.00  0.00  0.57  0.00  0.43  0.00  0.00  0.00
  WS02006238WS02006235    1.00   0.00  0.00  0.00  1.00  0.00  0.00  0.00  0.00  0.00
  WS02006239WS02006238    1.00   0.00  0.00  0.00  1.00  0.00  0.00  0.00  0.52  0.00
  WS02006240WS02006239    1.00   0.00  0.00  0.00  0.41  0.00  0.00  0.59  0.02  0.00
  WS02006242WS02006240    1.00   0.00  0.00  0.00  1.00  0.00  0.00  0.00  0.00  0.00
  WS02006243WS02006242    1.00   0.00  0.00  0.00  0.99  0.00  0.00  0.01  0.76  0.00
  WS02006245WS02006243    1.00   0.00  0.00  0.00  0.45  0.00  0.00  0.55  0.02  0.00
  WS02006247WS02006245    1.00   0.00  0.00  0.00  0.99  0.00  0.00  0.01  0.00  0.00
  WS02006248WS02006247    1.00   0.00  0.00  0.00  0.99  0.00  0.00  0.01  0.26  0.00
  WS02006249WS02006248    1.00   0.00  0.00  0.00  0.28  0.00  0.72  0.00  0.00  0.00
  WS02006251WS02006249    1.00   0.00  0.01  0.00  0.99  0.01  0.00  0.00  0.76  0.00
  WS02006252WS02006251    1.00   0.00  0.34  0.00  0.08  0.00  0.59  0.00  0.00  0.00
  WS02006256WS02006235    1.00   0.00  0.00  0.00  0.99  0.01  0.00  0.00  0.00  0.00
  WSF200WS02003060        1.00   0.00  0.13  0.00  0.72  0.15  0.00  0.00  0.70  0.00
  YS02001580YS02001583    1.00   0.29  0.56  0.00  0.15  0.00  0.00  0.00  0.65  0.00
  YS02001583YS02001586    1.00   0.49  0.31  0.00  0.20  0.00  0.00  0.00  0.66  0.00
  YS02001586YS02001590    1.00   0.13  0.00  0.00  0.38  0.04  0.00  0.45  0.36  0.00
  YS02001590YS02001593    1.00   0.13  0.01  0.00  0.07  0.00  0.79  0.00  0.00  0.00
  YS02001593YS02001596    1.00   0.14  0.00  0.00  0.09  0.01  0.00  0.77  0.01  0.00
  YS02001596YS02001600    1.00   0.14  0.00  0.00  0.14  0.01  0.00  0.70  0.05  0.00
  YS02001600YS02001601    1.00   0.13  0.01  0.00  0.86  0.00  0.00  0.00  0.65  0.00
  YS02001601YS02001602    1.00   0.13  0.01  0.00  0.86  0.00  0.00  0.00  0.00  0.00
  YS02001602YS02001605    1.00   0.14  0.00  0.00  0.86  0.00  0.00  0.00  0.00  0.00
  YS02001605YS02001607    1.00   0.14  0.00  0.00  0.86  0.00  0.00  0.00  0.00  0.00
  YS02001607YS02001610    1.00   0.13  0.01  0.00  0.86  0.00  0.00  0.00  0.02  0.00
  YS02001610YS02001613    1.00   0.13  0.00  0.00  0.87  0.00  0.00  0.00  0.01  0.00
  YS02001613YS02001616    1.00   0.13  0.00  0.00  0.87  0.00  0.00  0.00  0.01  0.00
  YS02001616YS02001619    1.00   0.13  0.00  0.00  0.87  0.00  0.00  0.00  0.00  0.00
  YS02001619YS02001622    1.00   0.13  0.00  0.00  0.87  0.00  0.00  0.00  0.34  0.00
  YS02001622YS02001625    1.00   0.13  0.00  0.00  0.87  0.00  0.00  0.00  0.06  0.00
  YS02001625YS02001629    1.00   0.13  0.06  0.00  0.11  0.00  0.70  0.00  0.00  0.00
  YS02001629YS02163301    1.00   0.17  0.01  0.00  0.82  0.00  0.00  0.00  0.00  0.00
  YS02001633YS02163601    1.00   0.00  0.01  0.00  0.99  0.00  0.00  0.00  0.16  0.00
  YS02001641YS02001644    1.00   0.00  0.01  0.00  0.99  0.00  0.00  0.00  0.00  0.00
  YS02001644YS02001647    1.00   0.00  0.19  0.00  0.81  0.00  0.00  0.00  0.00  0.00
  YS02001647YS02001649    1.00   0.00  0.19  0.00  0.52  0.29  0.00  0.00  0.59  0.00
  YS02001649YS02001757    1.00   0.00  0.00  0.00  0.69  0.31  0.00  0.00  0.55  0.00
  YS02001652YS02001649    1.00   0.00  0.00  0.00  0.95  0.05  0.00  0.00  0.81  0.00
  YS02001655YS02001652    1.00   0.00  0.00  0.00  0.12  0.01  0.00  0.87  0.04  0.00
  YS02001658YS02001655    1.00   0.00  0.15  0.00  0.63  0.22  0.00  0.00  0.75  0.00
  YS02001661YS02001658    1.00   0.15  0.00  0.00  0.50  0.36  0.00  0.00  0.75  0.00
  YS02001664YS02001661    1.00   0.13  0.00  0.00  0.79  0.08  0.00  0.00  0.86  0.00
  YS02001745YS02001748    1.00   0.00  0.00  0.00  0.05  0.01  0.00  0.95  0.03  0.00
  YS02001748YS02001751    1.00   0.00  0.00  0.00  0.82  0.18  0.00  0.00  0.79  0.00
  YS02001751YS02001754    1.00   0.00  0.00  0.00  0.10  0.00  0.00  0.90  0.02  0.00
  YS02001754YS02001757    1.00   0.00  0.00  0.00  1.00  0.00  0.00  0.00  0.89  0.00
  YS02001757CaochengTiaoxuchi    1.00   0.00  0.00  0.00  1.00  0.00  0.00  0.00  0.88  0.00
  YS02001759YS02001757    1.00   0.00  0.00  0.00  1.00  0.00  0.00  0.00  0.64  0.00
  YS02001762YS02001759    1.00   0.00  0.00  0.00  1.00  0.00  0.00  0.00  0.06  0.00
  YS02001765YS02001762    1.00   0.00  0.00  0.00  1.00  0.00  0.00  0.00  0.78  0.00
  YS02001767YS02001765    1.00   0.00  0.00  0.00  1.00  0.00  0.00  0.00  0.00  0.00
  YS02001770YS02001767    1.00   0.00  0.00  0.00  1.00  0.00  0.00  0.00  0.00  0.00
  YS02001774YS02001770    1.00   0.00  0.14  0.00  0.60  0.00  0.27  0.00  0.04  0.00
  YS02001779YS02001774    1.00   0.00  0.00  0.00  1.00  0.00  0.00  0.00  0.82  0.00
  YS02001783YS02001784    1.00   0.00  0.20  0.00  0.80  0.00  0.00  0.00  0.58  0.00
  YS02001784YS02001785    1.00   0.00  0.00  0.00  1.00  0.00  0.00  0.00  0.19  0.00
  YS02001786YS02001788    1.00   0.00  0.00  0.00  0.81  0.19  0.00  0.00  0.00  0.00
  YS02001788YS02001790    1.00   0.00  0.00  0.00  0.22  0.78  0.00  0.00  0.86  0.00
  YS02001790YS02001791    1.00   0.00  0.00  0.00  0.01  0.99  0.00  0.00  0.14  0.00
  YS02001791YS02001793    1.00   0.00  0.00  0.00  0.00  1.00  0.00  0.00  0.00  0.00
  YS02001793JiankangQianchi    1.00   0.00  0.00  0.00  0.99  0.00  0.00  0.00  0.97  0.00
  YS02001882YS02001884    1.00   0.16  0.01  0.00  0.83  0.00  0.00  0.00  0.00  0.00
  YS02001884YS02001887    1.00   0.06  0.05  0.00  0.89  0.00  0.00  0.00  0.00  0.00
  YS02001887YS02001890    1.00   0.00  0.00  0.00  0.97  0.00  0.03  0.00  0.00  0.00
  YS02001890YS02001895    1.00   0.00  0.18  0.00  0.82  0.00  0.00  0.00  0.00  0.00
  YS02001895YS02001898    1.00   0.18  0.00  0.00  0.80  0.00  0.02  0.00  0.00  0.00
  YS02001898YS02001901    1.00   0.18  0.01  0.00  0.81  0.00  0.00  0.00  0.01  0.00
  YS02001901YS02001904    1.00   0.18  0.00  0.00  0.82  0.00  0.00  0.00  0.00  0.00
  YS02001904YS02001907    1.00   0.00  0.18  0.00  0.82  0.00  0.00  0.00  0.00  0.00
  YS02001907YS02006553    1.00   0.00  0.02  0.00  0.98  0.00  0.00  0.00  0.00  0.00
  YS02001910YS02001907    1.00   0.00  0.00  0.00  0.97  0.00  0.00  0.03  0.12  0.00
  YS02001915YS02001910    1.00   0.00  0.00  0.00  0.96  0.04  0.00  0.00  0.18  0.00
  YS02001918YS02001915    1.00   0.00  0.01  0.00  0.98  0.02  0.00  0.00  0.79  0.00
  YS02001920YS02001918    1.00   0.00  0.01  0.00  0.99  0.00  0.00  0.00  0.00  0.00
  YS02001923YS02001920    1.00   0.00  0.00  0.00  1.00  0.00  0.00  0.00  0.96  0.00
  YS02001926YS02001923    1.00   0.00  0.07  0.00  0.03  0.00  0.89  0.00  0.00  0.00
  YS02001929YS02001926    1.00   0.00  0.13  0.00  0.87  0.00  0.00  0.00  0.85  0.00
  YS02006553YS02006556    1.00   0.01  0.00  0.00  0.99  0.00  0.00  0.00  0.03  0.00
  YS02006556YS02006558    1.00   0.00  0.00  0.00  1.00  0.00  0.00  0.00  0.00  0.00
  YS02006558YS02006561    1.00   0.20  0.00  0.00  0.03  0.77  0.00  0.00  0.17  0.00
  YS02006561YS02001783    1.00   0.20  0.00  0.00  0.05  0.75  0.00  0.00  0.71  0.00
  YS02163301YS02001633    1.00   0.00  0.17  0.00  0.83  0.00  0.00  0.00  0.00  0.00
  YS02163601YS02164001    1.00   0.00  0.08  0.00  0.92  0.00  0.00  0.00  0.00  0.00
  YS02164001YS02001641    1.00   0.01  0.07  0.00  0.92  0.00  0.00  0.00  0.06  0.00
  
  
  *************************
  Conduit Surcharge Summary
  *************************
  
  ----------------------------------------------------------------------------
                                                           Hours        Hours 
                         --------- Hours Full --------   Above Full   Capacity
  Conduit                Both Ends  Upstream  Dnstream   Normal Flow   Limited
  ----------------------------------------------------------------------------
  WS02003072WS02003073        0.01      0.01      0.01      1.35         0.01
  WS02004404WS02004405        0.01      0.01      0.01      1.62         0.01
  WS02004405WS02004406        0.01      0.01      0.01      0.45         0.01
  WS02006109WS02006110        0.44      0.44      1.23      0.53         0.01
  WS02006110WS02006113        0.01      0.01      1.21      0.01         0.01
  WS02006111WS02006112        0.01      0.01      1.28      0.01         0.01
  WS02006112WS02006115        0.01      0.01      0.51      0.01         0.01
  WS02006228WS02006109        1.18      1.23      1.18      1.42         1.18
  WS02006229WS02006228        1.18      1.19      1.18      1.35         1.17
  WS02006230WS02006229        1.28      1.32      1.28      2.54         1.28
  WS02006231WS02006230        0.45      0.45      0.59      2.01         0.01
  WS02006232WS02006231        0.55      0.55      1.24      0.60         0.01
  WS02006234WS02006232        1.14      1.14      1.24      0.59         0.58
  WS02006235WS02006234        0.74      0.75      1.15      1.83         0.01
  WS02006238WS02006235        1.18      1.18      1.24      0.01         0.01
  WS02006239WS02006238        1.18      1.19      1.20      1.22         1.08
  WS02006240WS02006239        1.17      1.18      1.17      1.23         1.00
  WS02006242WS02006240        1.18      1.18      1.20      1.30         0.01
  WS02006243WS02006242        1.17      1.17      1.19      0.01         0.03
  WS02006245WS02006243        1.17      1.17      1.17      0.76         0.72
  WS02006247WS02006245        1.17      1.17      1.17      1.50         1.16
  WS02006248WS02006247        1.17      1.17      1.17      0.01         0.04
  WS02006249WS02006248        1.16      1.17      1.16      1.48         0.01
  WS02006251WS02006249        1.16      1.16      1.16      1.27         1.11
  WS02006252WS02006251        1.34      1.34      1.35      1.35         0.01
  WS02006256WS02006235        1.85      1.89      3.87      1.00         0.01
  YS02001580YS02001583        0.32      0.32      0.36      0.01         0.01
  YS02001583YS02001586        0.33      0.33      0.42      0.01         0.01
  YS02001586YS02001590        0.43      0.43      0.48      0.01         0.01
  YS02001590YS02001593        0.49      0.49      0.50      0.50         0.01
  YS02001593YS02001596        0.49      0.49      0.57      0.01         0.01
  YS02001596YS02001600        0.61      0.61      0.68      0.01         0.01
  YS02001600YS02001601        0.74      0.74      0.99      0.01         0.01
  YS02001601YS02001602        0.89      0.89      1.03      0.69         0.01
  YS02001602YS02001605        0.84      0.84      0.89      1.88         0.01
  YS02001605YS02001607        0.80      0.84      0.80      0.95         0.80
  YS02001607YS02001610        0.45      0.45      0.47      0.01         0.01
  YS02001610YS02001613        0.45      0.45      0.47      0.01         0.01
  YS02001613YS02001616        0.41      0.41      0.45      0.01         0.01
  YS02001616YS02001619        0.40      0.40      0.41      0.01         0.01
  YS02001619YS02001622        0.40      0.40      0.40      0.50         0.38
  YS02001622YS02001625        0.40      0.40      0.54      0.01         0.01
  YS02001625YS02001629        0.37      0.37      0.54      0.01         0.01
  YS02001629YS02163301        0.54      0.54      0.54      0.13         0.13
  YS02001633YS02163601        0.56      0.56      0.59      0.26         0.25
  YS02001641YS02001644        0.47      0.50      0.47      1.08         0.46
  YS02001644YS02001647        0.31      0.31      0.47      0.01         0.01
  YS02001647YS02001649        0.31      0.31      0.39      0.01         0.01
  YS02001649YS02001757        0.39      0.39      0.43      0.06         0.04
  YS02001652YS02001649        0.28      0.28      0.39      0.01         0.01
  YS02001655YS02001652        0.18      0.18      0.27      0.01         0.01
  YS02001658YS02001655        0.08      0.08      0.18      0.01         0.01
  YS02001661YS02001658        0.01      0.01      0.08      0.01         0.01
  YS02001664YS02001661        0.01      0.01      0.01      0.01         0.01
  YS02001745YS02001748        0.01      0.01      0.03      0.01         0.01
  YS02001748YS02001751        0.06      0.06      0.12      0.01         0.01
  YS02001751YS02001754        0.12      0.12      0.21      0.01         0.01
  YS02001754YS02001757        0.23      0.23      0.43      0.01         0.01
  YS02001757CaochengTiaoxuchi        0.43      0.43      0.97      0.18         0.18
  YS02001759YS02001757        0.36      0.36      0.43      0.01         0.01
  YS02001762YS02001759        0.34      0.34      0.36      0.01         0.01
  YS02001765YS02001762        0.31      0.31      0.34      0.01         0.01
  YS02001767YS02001765        0.29      0.29      0.31      0.01         0.02
  YS02001770YS02001767        0.29      0.29      0.29      0.29         0.21
  YS02001774YS02001770        0.28      0.28      0.32      0.01         0.01
  YS02001779YS02001774        0.21      0.21      0.32      0.01         0.01
  YS02001783YS02001784        0.27      0.30      0.27      0.41         0.27
  YS02001784YS02001785        0.19      0.27      0.19      0.58         0.19
  YS02001786YS02001788        0.01      0.19      0.01      0.50         0.01
  YS02001790YS02001791        0.01      0.01      0.01      0.26         0.01
  YS02001793JiankangQianchi        0.01      0.01      7.70      0.01         0.01
  YS02001882YS02001884        0.25      0.25      0.26      0.01         0.01
  YS02001884YS02001887        0.28      0.28      0.29      0.01         0.01
  YS02001887YS02001890        0.30      0.30      0.31      0.01         0.01
  YS02001890YS02001895        0.24      0.24      0.32      0.01         0.01
  YS02001895YS02001898        0.24      0.24      0.24      0.01         0.01
  YS02001898YS02001901        0.25      0.25      0.28      0.01         0.01
  YS02001901YS02001904        0.27      0.27      0.28      0.01         0.01
  YS02001904YS02001907        0.27      0.27      0.48      0.01         0.01
  YS02001907YS02006553        0.59      0.59      0.63      0.01         0.01
  YS02001910YS02001907        0.32      0.32      0.47      0.01         0.01
  YS02001915YS02001910        0.25      0.25      0.32      0.01         0.01
  YS02001918YS02001915        0.18      0.18      0.25      0.01         0.01
  YS02001920YS02001918        0.18      0.18      0.19      0.01         0.01
  YS02001923YS02001920        0.15      0.15      0.19      0.01         0.01
  YS02001926YS02001923        0.01      0.01      0.01      0.01         0.01
  YS02001929YS02001926        0.01      0.01      0.01      0.01         0.01
  YS02006553YS02006556        0.40      0.40      0.48      0.01         0.01
  YS02006556YS02006558        0.44      0.44      0.50      0.01         0.01
  YS02006558YS02006561        0.21      0.38      0.21      0.55         0.21
  YS02006561YS02001783        0.15      0.15      0.30      0.01         0.01
  YS02163301YS02001633        0.54      0.54      0.58      0.01         0.01
  YS02163601YS02164001        0.51      0.51      0.59      0.07         0.01
  YS02164001YS02001641        0.50      0.51      0.50      0.51         0.42
  
  
  ***************
  Pumping Summary
  ***************
  
  ---------------------------------------------------------------------------------------------------------
                                                  Min       Avg       Max     Total     Power    % Time Off
                        Percent   Number of      Flow      Flow      Flow    Volume     Usage    Pump Curve
  Pump                 Utilized   Start-Ups       LPS       LPS       LPS  10^6 ltr     Kw-hr    Low   High
  ---------------------------------------------------------------------------------------------------------
  CC-R1                   15.46          14      0.00    683.00    683.00     3.040     55.30    0.0   30.7
  CC-R2                   14.36          14      0.00    683.00    683.00     2.826     51.32    0.0   33.0
  CC-S1                   19.35          14      0.00    200.00    200.00     1.114      6.66    0.0    0.0
  CC-S2                   16.82          14      0.00    200.00    200.00     0.969      5.79    0.0    0.0
  JK-R1                    5.67           9      0.00   1000.00   1000.00     1.632     18.90    0.0    0.0
  JK-R2                    0.16           1      0.00   1000.00   1000.00     0.047      0.36    0.0    0.0
  JK-S                    12.38          16      0.00    300.00    300.00     1.070     14.89    0.0    0.0
  XR-1                    97.91           2      0.00     95.00     95.00     2.679      9.60    0.0    0.0
  XR-2                    93.94           2      0.00     95.00     95.00     2.570      8.76    0.0    0.0
  XR-3                     0.00           1      0.00     95.00     95.00     0.000      0.00    0.0    0.0
  XR-4                     0.00           1      0.00     95.00     95.00     0.000      0.00    0.0    0.0
  

  Analysis begun on:  Wed Nov  5 16:30:52 2025
  Analysis ended on:  Wed Nov  5 16:30:55 2025
  Total elapsed time: 00:00:03