
  EPA STORM WATER MANAGEMENT MODEL - VERSION 5.2 (Build 5.2.4)
  PYSWMM TOOLKIT API - VERSION v1.0 (2023-11-27)
  ------------------------------------------------------------

  WARNING 04: minimum elevation drop used for Conduit WS02004404WS02004405
  WARNING 03: negative offset ignored for Link YS02001904YS02001907
  
  ****************
  Analysis Options
  ****************
  Flow Units ............... LPS
  Process Models:
    Rainfall/Runoff ........ YES
    RDII ................... NO
    Snowmelt ............... NO
    Groundwater ............ NO
    Flow Routing ........... YES
    Ponding Allowed ........ NO
    Water Quality .......... NO
  Infiltration Method ...... HORTON
  Flow Routing Method ...... DYNWAVE
  Surcharge Method ......... EXTRAN
  Starting Date ............ 08/28/2015 08:00:00
  Ending Date .............. 08/28/2015 16:00:00
  Antecedent Dry Days ...... 8.0
  Report Time Step ......... 00:01:00
  Wet Time Step ............ 00:01:00
  Dry Time Step ............ 00:01:00
  Routing Time Step ........ 30.00 sec
  Variable Time Step ....... YES
  Maximum Trials ........... 8
  Number of Threads ........ 4
  Head Tolerance ........... 0.001500 m
  
  
  **************************        Volume         Depth
  Runoff Quantity Continuity     hectare-m            mm
  **************************     ---------       -------
  Initial LID Storage ......         0.049         1.488
  Total Precipitation ......         1.659        50.008
  Evaporation Loss .........         0.000         0.000
  Infiltration Loss ........         0.073         2.197
  Surface Runoff ...........         1.211        36.507
  Final Storage ............         0.425        12.821
  Continuity Error (%) .....        -0.058
  
  
  **************************        Volume        Volume
  Flow Routing Continuity        hectare-m      10^6 ltr
  **************************     ---------     ---------
  Dry Weather Inflow .......         0.602         6.020
  Wet Weather Inflow .......         1.211        12.111
  Groundwater Inflow .......         0.000         0.000
  RDII Inflow ..............         0.000         0.000
  External Inflow ..........         0.105         1.045
  External Outflow .........         1.647        16.470
  Flooding Loss ............         0.243         2.427
  Evaporation Loss .........         0.000         0.000
  Exfiltration Loss ........         0.000         0.000
  Initial Stored Volume ....         0.303         3.031
  Final Stored Volume ......         0.338         3.379
  Continuity Error (%) .....        -0.309
  
  
  *************************
  Highest Continuity Errors
  *************************
  Node YS02001583 (-9.55%)
  Node YS02001884 (4.87%)
  Node YS02001774 (1.51%)
  
  
  ***************************
  Time-Step Critical Elements
  ***************************
  Link WS02004404WS02004405 (35.27%)
  Link WS02006238WS02006235 (20.61%)
  Link WS02006252WS02006251 (11.62%)
  Link YS02001791YS02001793 (8.12%)
  Link WS02003066WSF200 (7.30%)
  
  
  ********************************
  Highest Flow Instability Indexes
  ********************************
  Link WS02006113WS02006111 (26)
  Link WS02006252WS02006251 (21)
  Link WS02006238WS02006235 (20)
  Link WS02006111WS02006112 (17)
  Link WS02006256WS02006235 (14)
  
  
  *********************************
  Most Frequent Nonconverging Nodes
  *********************************
  Node CC-1 (12.60%)
  Node CC-2 (12.60%)
  Node JK-1 (12.60%)
  Node JK-2 (12.60%)
  Node WSC (12.60%)
  
  
  *************************
  Routing Time Step Summary
  *************************
  Minimum Time Step           :     0.03 sec
  Average Time Step           :     3.59 sec
  Maximum Time Step           :     7.04 sec
  % of Time in Steady State   :     0.00
  Average Iterations per Step :     3.18
  % of Steps Not Converging   :    12.60
  Time Step Frequencies       :
     30.000 - 13.228 sec      :     0.00 %
     13.228 -  5.833 sec      :    26.34 %
      5.833 -  2.572 sec      :    34.90 %
      2.572 -  1.134 sec      :    25.81 %
      1.134 -  0.500 sec      :    12.95 %
  
  
  ***************************
  Subcatchment Runoff Summary
  ***************************
  
  ------------------------------------------------------------------------------------------------------------------------------
                            Total      Total      Total      Total     Imperv       Perv      Total       Total     Peak  Runoff
                           Precip      Runon       Evap      Infil     Runoff     Runoff     Runoff      Runoff   Runoff   Coeff
  Subcatchment                 mm         mm         mm         mm         mm         mm         mm    10^6 ltr      LPS
  ------------------------------------------------------------------------------------------------------------------------------
  sub60                     50.01       0.00       0.00       1.32      33.04       3.32      36.36        0.48   370.39   0.727
  sub61                     50.01       0.00       0.00       2.02      33.01       4.94      37.95        0.70   538.11   0.759
  sub62                     50.01       0.00       0.00       0.89      35.19       2.25      37.44        1.03   736.48   0.749
  sub63                     50.01       0.00       0.00       3.69      28.27       8.19      36.46        0.83   598.47   0.729
  sub64                     50.01       0.00       0.00       1.77      32.19       4.08      36.26        0.87   589.77   0.725
  sub65                     50.01       0.00       0.00       1.62      34.74       3.72      38.46        1.06   683.07   0.769
  sub66                     50.01       0.00       0.00       4.30      27.33       7.20      34.52        1.61   856.68   0.690
  sub67                     50.01       0.00       0.00       0.89      36.08       2.33      38.41        0.71   583.95   0.768
  sub68                     50.01       0.00       0.00       1.55      31.86       3.79      35.65        0.98   734.47   0.713
  sub69                     50.01       0.00       0.00       1.39      33.61       4.55      38.16        1.41   887.14   0.763
  sub70                     50.01       0.00       0.00       4.69      26.92       9.23      36.14        1.04   493.54   0.723
  sub71                     50.01       0.00       0.00       0.82      31.96       2.04      34.00        0.89   600.07   0.680
  sub72                     50.01       0.00       0.00       0.78      34.52       1.89      36.41        0.50   304.39   0.728
  

  ***********************
  LID Performance Summary
  ***********************

  --------------------------------------------------------------------------------------------------------------------
                                         Total      Evap     Infil   Surface    Drain    Initial     Final  Continuity
                                        Inflow      Loss      Loss   Outflow   Outflow   Storage   Storage       Error
  Subcatchment      LID Control             mm        mm        mm        mm        mm        mm        mm           %
  --------------------------------------------------------------------------------------------------------------------
  sub60             GreenRoof            50.01      0.00      0.00      0.00      0.00      7.05     57.15       -0.16
  sub61             GreenRoof            50.01      0.00      0.00      0.00      0.00      7.05     57.15       -0.16
  sub62             GreenRoof            50.01      0.00      0.00      0.00      0.00      7.05     57.15       -0.16
  sub63             GreenRoof            50.01      0.00      0.00      0.00      0.00      7.05     57.15       -0.16
  sub64             GreenRoof            50.01      0.00      0.00      0.00      0.00      7.05     57.15       -0.16
  sub65             GreenRoof            50.01      0.00      0.00      0.00      0.00      7.05     57.15       -0.16
  sub66             GreenRoof            50.01      0.00      0.00      0.00      0.00      7.05     57.15       -0.16
  sub67             GreenRoof            50.01      0.00      0.00      0.00      0.00      7.05     57.15       -0.16
  sub68             GreenRoof            50.01      0.00      0.00      0.00      0.00      7.05     57.15       -0.16
  sub69             GreenRoof            50.01      0.00      0.00      0.00      0.00      7.05     57.15       -0.16
  sub70             GreenRoof            50.01      0.00      0.00      0.00      0.00      7.05     57.15       -0.16
  sub71             GreenRoof            50.01      0.00      0.00      0.00      0.00      7.05     57.15       -0.16
  sub72             GreenRoof            50.01      0.00      0.00      0.00      0.00      7.05     57.15       -0.16
  
  ******************
  Node Depth Summary
  ******************
  
  ---------------------------------------------------------------------------------
                                 Average  Maximum  Maximum  Time of Max    Reported
                                   Depth    Depth      HGL   Occurrence   Max Depth
  Node                 Type       Meters   Meters   Meters  days hr:min      Meters
  ---------------------------------------------------------------------------------
  WS02001211           JUNCTION     0.60     0.64     5.48     0  02:49        0.64
  WS02001212           JUNCTION     0.33     0.38     5.45     0  02:38        0.38
  WS02001213           JUNCTION     0.52     0.65     5.41     0  02:37        0.65
  WS02003059           JUNCTION     0.58     0.72     5.40     0  02:36        0.72
  WS02003060           JUNCTION     0.29     0.45     5.38     0  02:36        0.45
  WS02003066           JUNCTION     0.15     0.30     5.85     0  02:30        0.30
  WS02003067           JUNCTION     0.41     0.70     6.02     0  02:30        0.70
  WS02003069           JUNCTION     0.32     0.51     5.10     0  02:36        0.51
  WS02003072           JUNCTION     0.39     0.58     4.95     0  02:37        0.58
  WS02003073           JUNCTION     0.23     0.35     4.41     0  02:38        0.35
  WS02004138           JUNCTION     0.13     0.14     7.39     0  00:29        0.14
  WS02004139           JUNCTION     0.54     0.58     5.49     0  02:39        0.58
  WS02004401           JUNCTION     0.50     0.85     6.85     0  02:33        0.85
  WS02004402           JUNCTION     0.53     0.88     6.84     0  02:33        0.88
  WS02004403           JUNCTION     0.55     0.89     6.82     0  02:26        0.89
  WS02004404           JUNCTION     0.63     0.96     6.81     0  02:26        0.96
  WS02004405           JUNCTION     0.63     0.96     6.81     0  02:34        0.96
  WS02004406           JUNCTION     0.64     0.96     6.79     0  02:28        0.96
  WS02004407           JUNCTION     0.13     0.30     6.61     0  02:28        0.30
  WS02004409           JUNCTION     0.29     0.67     6.44     0  02:28        0.67
  WS02004410           JUNCTION     0.31     0.68     6.40     0  02:34        0.68
  WS02004411           JUNCTION     0.34     0.69     6.37     0  02:29        0.69
  WS02004412           JUNCTION     0.36     0.70     6.34     0  02:35        0.70
  WS02004413           JUNCTION     0.52     0.86     6.33     0  02:30        0.86
  WS02006109           JUNCTION     0.55     1.13     7.75     0  03:09        1.13
  WS02006110           JUNCTION     0.55     1.09     7.68     0  03:09        1.09
  WS02006111           JUNCTION     0.13     0.29     6.99     0  03:04        0.29
  WS02006112           JUNCTION     0.64     1.07     6.95     0  02:23        1.06
  WS02006113           JUNCTION     0.20     0.46     7.35     0  03:04        0.46
  WS02006115           JUNCTION     0.38     0.75     6.89     0  02:24        0.75
  WS02006116           JUNCTION     0.46     0.83     6.87     0  02:25        0.83
  WS02006228           JUNCTION     0.53     1.16     7.81     0  03:04        1.12
  WS02006229           JUNCTION     0.51     1.17     7.86     0  03:04        1.10
  WS02006230           JUNCTION     0.50     1.27     8.02     0  03:04        1.18
  WS02006231           JUNCTION     0.32     1.01     8.13     0  03:04        0.95
  WS02006232           JUNCTION     0.44     1.28     8.31     0  03:04        1.24
  WS02006234           JUNCTION     0.37     1.37     8.53     0  03:04        1.37
  WS02006235           JUNCTION     0.41     1.53     8.70     0  03:04        1.53
  WS02006238           JUNCTION     0.43     1.60     8.74     0  03:04        1.60
  WS02006239           JUNCTION     0.39     1.63     8.84     0  03:04        1.63
  WS02006240           JUNCTION     0.36     1.60     8.89     0  03:04        1.60
  WS02006242           JUNCTION     0.41     1.55     8.82     0  03:04        1.55
  WS02006243           JUNCTION     0.34     1.45     8.87     0  03:04        1.45
  WS02006245           JUNCTION     0.34     1.34     8.83     0  03:04        1.34
  WS02006247           JUNCTION     0.36     1.28     8.78     0  03:04        1.28
  WS02006248           JUNCTION     0.33     1.10     8.69     0  03:04        1.10
  WS02006249           JUNCTION     0.35     1.09     8.69     0  02:03        1.09
  WS02006251           JUNCTION     0.35     1.37     9.04     0  02:03        1.12
  WS02006252           JUNCTION     0.24     1.50     9.74     0  00:00        0.70
  WS02006256           JUNCTION     1.02     2.35     9.28     0  00:00        2.35
  WSF200               JUNCTION     0.12     0.31     5.54     0  02:30        0.31
  YS02001580           JUNCTION     0.09     1.05     9.59     0  01:58        0.77
  YS02001583           JUNCTION     0.13     1.14     9.64     0  01:58        0.82
  YS02001586           JUNCTION     0.21     1.13     9.30     0  01:57        1.13
  YS02001590           JUNCTION     0.31     1.40     9.26     0  01:56        1.40
  YS02001593           JUNCTION     0.25     1.46     9.32     0  01:56        1.28
  YS02001596           JUNCTION     0.34     1.71     9.13     0  01:56        1.65
  YS02001600           JUNCTION     0.42     1.87     9.00     0  01:56        1.86
  YS02001601           JUNCTION     0.61     2.06     8.90     0  01:56        2.06
  YS02001602           JUNCTION     0.51     1.87     8.77     0  01:57        1.87
  YS02001605           JUNCTION     0.47     1.78     8.68     0  01:58        1.78
  YS02001607           JUNCTION     0.45     1.66     8.50     0  02:03        1.66
  YS02001610           JUNCTION     0.49     1.68     8.48     0  01:58        1.68
  YS02001613           JUNCTION     0.45     1.70     8.54     0  02:00        1.70
  YS02001616           JUNCTION     0.38     1.61     8.52     0  01:58        1.61
  YS02001619           JUNCTION     0.36     1.61     8.54     0  01:58        1.61
  YS02001622           JUNCTION     0.35     1.62     8.52     0  01:58        1.61
  YS02001625           JUNCTION     0.60     1.78     8.38     0  01:58        1.78
  YS02001629           JUNCTION     0.48     1.85     8.40     0  01:58        1.85
  YS02001633           JUNCTION     0.55     2.08     8.53     0  01:59        2.08
  YS02001641           JUNCTION     0.52     2.02     8.46     0  01:59        1.94
  YS02001644           JUNCTION     0.52     1.92     8.35     0  01:59        1.92
  YS02001647           JUNCTION     0.30     1.89     8.50     0  01:59        1.71
  YS02001649           JUNCTION     0.34     2.04     8.43     0  02:01        1.89
  YS02001652           JUNCTION     0.24     2.06     8.66     0  02:01        1.72
  YS02001655           JUNCTION     0.17     1.99     8.84     0  02:01        1.52
  YS02001658           JUNCTION     0.12     2.06     9.20     0  02:01        1.27
  YS02001661           JUNCTION     0.15     1.42     8.83     0  02:02        1.07
  YS02001664           JUNCTION     0.06     0.64     8.57     0  02:02        0.40
  YS02001745           JUNCTION     0.06     0.97     8.48     0  02:01        0.84
  YS02001748           JUNCTION     0.11     2.23     9.30     0  02:01        1.25
  YS02001751           JUNCTION     0.14     2.11     8.99     0  02:01        1.40
  YS02001754           JUNCTION     0.20     2.02     8.63     0  02:01        1.62
  YS02001757           JUNCTION     0.35     2.13     8.39     0  02:01        1.92
  YS02001759           JUNCTION     0.30     2.07     8.43     0  02:01        1.90
  YS02001762           JUNCTION     0.29     2.03     8.43     0  02:01        1.89
  YS02001765           JUNCTION     0.27     2.01     8.46     0  02:01        1.86
  YS02001767           JUNCTION     0.27     2.03     8.52     0  02:00        1.85
  YS02001770           JUNCTION     0.28     1.95     8.44     0  02:01        1.88
  YS02001774           JUNCTION     0.34     2.02     8.44     0  02:01        1.94
  YS02001779           JUNCTION     0.18     1.68     8.37     0  02:00        1.68
  YS02001783           JUNCTION     0.25     1.28     7.42     0  02:00        1.21
  YS02001784           JUNCTION     0.27     1.15     7.22     0  02:00        1.12
  YS02001786           JUNCTION     0.23     0.90     6.93     0  02:00        0.86
  YS02001788           JUNCTION     0.16     0.62     6.60     0  02:02        0.62
  YS02001790           JUNCTION     0.19     0.72     6.37     0  02:03        0.71
  YS02001791           JUNCTION     0.12     0.44     5.91     0  02:01        0.42
  YS02001793           JUNCTION     0.06     0.31     5.14     0  02:03        0.27
  YS02001882           JUNCTION     0.31     1.83     8.55     0  01:59        1.83
  YS02001884           JUNCTION     0.40     1.93     8.55     0  01:59        1.93
  YS02001887           JUNCTION     0.48     2.00     8.54     0  02:00        2.00
  YS02001890           JUNCTION     0.51     1.81     8.32     0  01:59        1.81
  YS02001895           JUNCTION     0.29     1.75     8.50     0  01:59        1.56
  YS02001898           JUNCTION     0.29     1.77     8.51     0  01:59        1.60
  YS02001901           JUNCTION     0.40     1.87     8.48     0  01:59        1.67
  YS02001904           JUNCTION     0.38     1.83     8.46     0  01:59        1.65
  YS02001907           JUNCTION     0.69     1.96     8.25     0  01:59        1.96
  YS02001910           JUNCTION     0.49     2.04     8.55     0  01:59        1.82
  YS02001915           JUNCTION     0.31     2.00     8.72     0  01:59        1.66
  YS02001918           JUNCTION     0.16     1.81     8.88     0  02:01        1.37
  YS02001920           JUNCTION     0.24     2.14     9.15     0  02:01        1.44
  YS02001923           JUNCTION     0.12     2.03     9.29     0  02:01        1.20
  YS02001926           JUNCTION     0.16     1.90     9.35     0  02:01        0.98
  YS02001929           JUNCTION     0.08     1.78     9.47     0  02:00        1.06
  YS02006553           JUNCTION     0.70     1.99     8.28     0  02:00        1.99
  YS02006556           JUNCTION     0.67     1.97     8.28     0  02:00        1.96
  YS02006558           JUNCTION     0.71     2.01     8.28     0  02:00        1.99
  YS02006561           JUNCTION     0.15     0.98     7.64     0  02:00        0.88
  YS02163301           JUNCTION     0.50     2.00     8.51     0  02:00        2.00
  YS02163601           JUNCTION     0.58     2.08     8.48     0  01:59        2.03
  YS02164001           JUNCTION     0.51     2.05     8.50     0  01:59        1.94
  CC-1                 OUTFALL      0.00     0.00     0.00     0  00:00        0.00
  CC-2                 OUTFALL      0.00     0.00     0.00     0  00:00        0.00
  JK-1                 OUTFALL      0.00     0.00     0.00     0  00:00        0.00
  JK-2                 OUTFALL      0.00     0.00     0.00     0  00:00        0.00
  WSC                  OUTFALL      0.22     0.35     1.02     0  02:50        0.35
  CC-storage           STORAGE      0.77     1.51     7.01     0  02:21        1.51
  JK-storage           STORAGE      2.96     4.23     5.03     0  02:03        4.21
  XR-storage           STORAGE      7.86     9.26     7.26     0  08:00        9.26
  
  
  *******************
  Node Inflow Summary
  *******************
  
  -------------------------------------------------------------------------------------------------
                                  Maximum  Maximum                  Lateral       Total        Flow
                                  Lateral    Total  Time of Max      Inflow      Inflow     Balance
                                   Inflow   Inflow   Occurrence      Volume      Volume       Error
  Node                 Type           LPS      LPS  days hr:min    10^6 ltr    10^6 ltr     Percent
  -------------------------------------------------------------------------------------------------
  WS02001211           JUNCTION      7.35   200.52     0  02:54       0.212        5.44       0.611
  WS02001212           JUNCTION      0.00   202.74     0  02:54           0        5.41       0.290
  WS02001213           JUNCTION      0.00   204.41     0  02:55           0        5.39       0.331
  WS02003059           JUNCTION      0.00   208.93     0  03:28           0        5.38       0.592
  WS02003060           JUNCTION     16.53   751.00     0  02:35       0.476        8.72       0.164
  WS02003066           JUNCTION      0.00   536.55     0  02:30           0         2.9       0.053
  WS02003067           JUNCTION      0.00   536.49     0  02:30           0         2.9       0.155
  WS02003069           JUNCTION      0.32   750.95     0  02:36     0.00922        8.71       0.172
  WS02003072           JUNCTION      0.00   750.82     0  02:37           0         8.7       0.233
  WS02003073           JUNCTION      1.82   752.56     0  02:37      0.0524        8.73       0.239
  WS02004138           JUNCTION      0.00   380.00     0  00:00           0        5.25       0.053
  WS02004139           JUNCTION      0.32   191.16     0  00:29     0.00924        5.26       0.509
  WS02004401           JUNCTION      0.00   538.67     0  02:25           0        3.02       0.407
  WS02004402           JUNCTION      0.00   537.96     0  02:27           0        3.01       0.406
  WS02004403           JUNCTION      0.00   538.28     0  02:26           0           3       0.389
  WS02004404           JUNCTION      0.16   537.58     0  02:27     0.00467        2.99       0.320
  WS02004405           JUNCTION      0.04   537.71     0  02:28      0.0011        2.98       0.470
  WS02004406           JUNCTION      0.00   538.27     0  02:26           0        2.97       0.787
  WS02004407           JUNCTION      0.00   537.45     0  02:28           0        2.95       0.081
  WS02004409           JUNCTION      0.00   537.14     0  02:28           0        2.94       0.147
  WS02004410           JUNCTION      0.00   536.95     0  02:28           0        2.94       0.188
  WS02004411           JUNCTION      0.00   536.81     0  02:29           0        2.93       0.223
  WS02004412           JUNCTION      0.00   536.69     0  02:29           0        2.93       0.291
  WS02004413           JUNCTION      0.00   536.78     0  02:29           0        2.92       0.504
  WS02006109           JUNCTION      1.23   570.06     0  03:04      0.0354        3.08       0.379
  WS02006110           JUNCTION      0.00   573.51     0  03:04           0        3.07       0.317
  WS02006111           JUNCTION      0.00   565.62     0  03:04           0        3.06       0.060
  WS02006112           JUNCTION      0.00   543.95     0  03:04           0        3.06       0.670
  WS02006113           JUNCTION      0.00   584.62     0  03:04           0        3.06       0.116
  WS02006115           JUNCTION      0.00   550.01     0  03:05           0        3.04       0.298
  WS02006116           JUNCTION      0.00   540.09     0  02:25           0        3.03       0.172
  WS02006228           JUNCTION      0.00   563.08     0  03:04           0        3.06       0.195
  WS02006229           JUNCTION      0.00   558.27     0  03:04           0        3.06       0.222
  WS02006230           JUNCTION     10.28   583.26     0  03:03       0.296        3.07       0.214
  WS02006231           JUNCTION      0.00   569.94     0  03:03           0        2.77      -0.044
  WS02006232           JUNCTION      0.00   568.90     0  03:03           0        2.79       0.560
  WS02006234           JUNCTION      0.00   564.89     0  03:03           0        2.78      -0.336
  WS02006235           JUNCTION      0.00   558.14     0  03:03           0        2.88       0.452
  WS02006238           JUNCTION      0.00   420.46     0  02:46           0        2.01      -0.127
  WS02006239           JUNCTION      0.00   420.42     0  02:46           0        1.96       0.001
  WS02006240           JUNCTION      0.00   418.41     0  02:46           0        1.91      -0.050
  WS02006242           JUNCTION      0.00   419.01     0  02:46           0        1.88      -0.136
  WS02006243           JUNCTION      0.00   418.23     0  02:46           0        1.86      -0.077
  WS02006245           JUNCTION      0.00   417.08     0  03:05           0        1.86       0.529
  WS02006247           JUNCTION      0.00   416.61     0  02:46           0        1.86      -0.000
  WS02006248           JUNCTION      0.00   417.38     0  02:46           0        1.86      -0.173
  WS02006249           JUNCTION      0.00   461.87     0  03:20           0        2.07       0.668
  WS02006251           JUNCTION      0.08   425.53     0  03:15     0.00222        2.07      -0.019
  WS02006252           JUNCTION      0.00   400.00     0  00:00           0        2.06      -0.325
  WS02006256           JUNCTION      0.00   300.00     0  00:00           0         1.3      -0.651
  WSF200               JUNCTION      0.00   536.60     0  02:30           0         2.9       0.026
  YS02001580           JUNCTION      0.00   146.39     0  01:58           0      0.0046       4.121
  YS02001583           JUNCTION      0.00   246.01     0  01:58           0      0.0151      -8.720
  YS02001586           JUNCTION    493.54   493.54     0  02:04        1.04        1.06       0.140
  YS02001590           JUNCTION      0.00   318.17     0  02:03           0       0.943      -0.053
  YS02001593           JUNCTION      0.00   318.30     0  02:03           0       0.943      -0.003
  YS02001596           JUNCTION      0.00   317.99     0  02:09           0       0.943      -0.015
  YS02001600           JUNCTION      0.00   318.02     0  02:12           0       0.944       0.001
  YS02001601           JUNCTION    887.14  1204.70     0  02:02        1.41        2.36       0.012
  YS02001602           JUNCTION      0.00   553.65     0  01:57           0        1.71       0.013
  YS02001605           JUNCTION      0.00   553.51     0  01:57           0        1.64       0.012
  YS02001607           JUNCTION      0.00   553.27     0  01:57           0        1.64       0.107
  YS02001610           JUNCTION      0.00   547.99     0  01:57           0        1.64       0.119
  YS02001613           JUNCTION      0.00   555.23     0  01:57           0        1.43       0.088
  YS02001616           JUNCTION      0.00   574.23     0  01:57           0        1.43       0.017
  YS02001619           JUNCTION    856.68   989.10     0  01:58        1.61        3.04      -0.010
  YS02001622           JUNCTION      0.00  1002.83     0  01:58           0        3.03      -0.013
  YS02001625           JUNCTION      0.00   957.06     0  01:58           0        3.04       0.274
  YS02001629           JUNCTION      0.00   957.08     0  01:58           0        2.63       0.018
  YS02001633           JUNCTION    683.27  1447.07     0  01:59        1.06        3.67       0.085
  YS02001641           JUNCTION      0.00  1445.86     0  01:59           0        3.66       0.070
  YS02001644           JUNCTION    589.81  1911.78     0  01:59       0.872        4.53       0.065
  YS02001647           JUNCTION      0.00  1912.19     0  01:59           0        4.48       0.013
  YS02001649           JUNCTION      0.00  2143.18     0  02:00           0        5.32       0.008
  YS02001652           JUNCTION      0.00   776.20     0  02:03           0       0.834      -0.170
  YS02001655           JUNCTION      0.15   776.82     0  02:03     0.00443       0.833      -0.097
  YS02001658           JUNCTION      0.00   777.58     0  02:03           0       0.828      -0.124
  YS02001661           JUNCTION      0.00   773.20     0  02:02           0       0.828      -0.005
  YS02001664           JUNCTION    598.47   598.47     0  02:02       0.828       0.828      -0.016
  YS02001745           JUNCTION    370.39   668.12     0  02:01       0.478       0.481       0.308
  YS02001748           JUNCTION      0.04   680.18     0  02:01      0.0013       0.484      -0.648
  YS02001751           JUNCTION      0.01   515.31     0  02:02    0.000317       0.494       0.096
  YS02001754           JUNCTION      0.26   517.73     0  02:02     0.00749       0.511      -0.235
  YS02001757           JUNCTION      0.00  3277.01     0  02:02           0        7.56       0.031
  YS02001759           JUNCTION    538.15  1293.62     0  02:01       0.698        1.74      -0.025
  YS02001762           JUNCTION      0.00   753.80     0  02:01           0        1.04      -0.028
  YS02001765           JUNCTION      0.00   750.03     0  02:01           0        1.04       0.021
  YS02001767           JUNCTION      0.54   746.79     0  02:01      0.0154        1.04      -0.005
  YS02001770           JUNCTION    736.63   737.43     0  02:01        1.03        1.07      -0.063
  YS02001774           JUNCTION      0.00   531.03     0  02:00           0      0.0698       1.537
  YS02001779           JUNCTION      0.01   547.51     0  02:00    0.000144      0.0271      -2.393
  YS02001783           JUNCTION      0.00  1154.48     0  02:01           0        2.79       0.009
  YS02001784           JUNCTION      1.06  1155.21     0  02:01      0.0305        2.82       0.017
  YS02001786           JUNCTION      0.06  1155.28     0  02:01     0.00162        2.82       0.024
  YS02001788           JUNCTION      0.07  1157.45     0  02:01     0.00204        2.82       0.010
  YS02001790           JUNCTION      0.15  1170.12     0  02:02     0.00446        2.83       0.027
  YS02001791           JUNCTION      0.00  1286.90     0  02:03           0        2.83      -0.023
  YS02001793           JUNCTION      0.00  1237.84     0  02:03           0        2.83       0.009
  YS02001882           JUNCTION      0.00    74.19     0  01:59           0      0.0125       3.794
  YS02001884           JUNCTION      0.00   130.28     0  01:58           0      0.0482       5.117
  YS02001887           JUNCTION    584.40   585.48     0  02:01       0.728       0.761       0.577
  YS02001890           JUNCTION      0.00   585.54     0  02:01           0        0.72       0.697
  YS02001895           JUNCTION      0.00   559.19     0  02:00           0       0.707       0.188
  YS02001898           JUNCTION      0.00   563.35     0  02:00           0       0.705       0.024
  YS02001901           JUNCTION      0.00   567.80     0  02:00           0       0.708       0.438
  YS02001904           JUNCTION      0.00   569.77     0  02:00           0       0.712       0.376
  YS02001907           JUNCTION      0.00  1569.36     0  02:01           0        2.18       0.808
  YS02001910           JUNCTION      0.00  1054.64     0  02:01           0        1.47       0.478
  YS02001915           JUNCTION    600.09  1054.53     0  02:01        0.89        1.52       0.088
  YS02001918           JUNCTION      0.00   588.14     0  02:00           0       0.663       0.032
  YS02001920           JUNCTION      2.87   560.01     0  02:00      0.0827       0.641       0.104
  YS02001923           JUNCTION      0.04   712.78     0  02:00     0.00109       0.542      -0.147
  YS02001926           JUNCTION      0.05  1005.13     0  02:00      0.0015       0.521      -0.224
  YS02001929           JUNCTION    304.39   834.18     0  02:00       0.501       0.506      -0.118
  YS02006553           JUNCTION      0.00   793.55     0  02:12           0        1.83       0.631
  YS02006556           JUNCTION      0.00   794.07     0  02:12           0        1.84       0.418
  YS02006558           JUNCTION    735.35  1157.80     0  02:00        1.01        2.82       0.119
  YS02006561           JUNCTION      0.00  1156.37     0  02:00           0        2.79       0.001
  YS02163301           JUNCTION      0.00   928.73     0  01:59           0        2.62       0.047
  YS02163601           JUNCTION      0.11  1446.97     0  01:59     0.00317        3.66       0.130
  YS02164001           JUNCTION      0.00  1446.77     0  01:59           0        3.66       0.056
  CC-1                 OUTFALL       0.00   683.00     0  00:00           0        3.22       0.000
  CC-2                 OUTFALL       0.00   683.00     0  00:00           0           3       0.000
  JK-1                 OUTFALL       0.00  1000.00     0  00:00           0        1.49       0.000
  JK-2                 OUTFALL       0.00  1000.00     0  00:00           0      0.0484       0.000
  WSC                  OUTFALL       0.00   752.49     0  02:50           0        8.71       0.000
  CC-storage           STORAGE       0.00  3274.76     0  02:02           0        9.77      -0.261
  JK-storage           STORAGE       0.00  1223.25     0  02:01           0        2.98      -0.056
  XR-storage           STORAGE     200.00   200.00     0  00:00        5.76        6.36       0.001
  
  
  **********************
  Node Surcharge Summary
  **********************
  
  Surcharging occurs when water rises above the top of the highest conduit.
  ---------------------------------------------------------------------
                                               Max. Height   Min. Depth
                                   Hours       Above Crown    Below Rim
  Node                 Type      Surcharged         Meters       Meters
  ---------------------------------------------------------------------
  WS02006109           JUNCTION        1.24          0.311        1.509
  WS02006110           JUNCTION        0.72          0.183        1.667
  WS02006112           JUNCTION        0.64          0.066        1.614
  WS02006228           JUNCTION        1.23          0.328        1.872
  WS02006229           JUNCTION        1.24          0.368        2.082
  WS02006230           JUNCTION        0.72          0.193        1.377
  WS02006231           JUNCTION        0.76          0.296        1.234
  WS02006232           JUNCTION        1.27          0.575        0.905
  WS02006234           JUNCTION        0.93          0.648        0.592
  WS02006235           JUNCTION        1.23          0.825        0.465
  WS02006238           JUNCTION        1.25          0.876        0.554
  WS02006239           JUNCTION        1.21          0.890        0.400
  WS02006240           JUNCTION        1.21          0.888        0.502
  WS02006242           JUNCTION        1.22          0.820        0.000
  WS02006243           JUNCTION        1.20          0.745        0.025
  WS02006245           JUNCTION        1.20          0.633        0.217
  WS02006247           JUNCTION        1.20          0.566        0.194
  WS02006248           JUNCTION        1.19          0.380        0.000
  WS02006249           JUNCTION        1.19          0.390        0.000
  WS02006251           JUNCTION        0.78          0.342        0.838
  WS02006252           JUNCTION        1.37          1.100        0.000
  WS02006256           JUNCTION        3.97          2.050        0.000
  YS02001580           JUNCTION        0.35          0.450        0.000
  YS02001583           JUNCTION        0.36          0.500        0.000
  YS02001586           JUNCTION        0.47          0.510        0.000
  YS02001590           JUNCTION        0.52          0.750        0.000
  YS02001593           JUNCTION        0.53          0.840        0.000
  YS02001596           JUNCTION        0.61          0.981        0.089
  YS02001600           JUNCTION        0.72          1.190        0.000
  YS02001601           JUNCTION        1.04          1.440        0.000
  YS02001602           JUNCTION        0.92          1.270        0.000
  YS02001605           JUNCTION        0.87          1.180        0.000
  YS02001607           JUNCTION        0.49          0.656        0.024
  YS02001610           JUNCTION        0.51          0.680        0.000
  YS02001613           JUNCTION        0.49          0.695        0.005
  YS02001616           JUNCTION        0.46          0.610        0.000
  YS02001619           JUNCTION        0.45          0.610        0.000
  YS02001622           JUNCTION        0.44          0.620        0.000
  YS02001625           JUNCTION        0.58          0.780        0.000
  YS02001629           JUNCTION        0.40          0.470        0.000
  YS02001633           JUNCTION        0.60          1.060        0.000
  YS02001641           JUNCTION        0.55          1.019        0.081
  YS02001644           JUNCTION        0.52          0.920        0.000
  YS02001647           JUNCTION        0.35          0.892        0.008
  YS02001649           JUNCTION        0.45          1.039        0.011
  YS02001652           JUNCTION        0.30          1.030        0.100
  YS02001655           JUNCTION        0.19          0.994        0.206
  YS02001658           JUNCTION        0.07          1.062        0.238
  YS02001661           JUNCTION        0.01          0.353        1.037
  YS02001748           JUNCTION        0.01          1.145        0.045
  YS02001751           JUNCTION        0.11          1.112        0.088
  YS02001754           JUNCTION        0.22          0.972        0.178
  YS02001757           JUNCTION        0.49          1.132        0.078
  YS02001759           JUNCTION        0.41          1.065        0.145
  YS02001762           JUNCTION        0.38          1.032        0.118
  YS02001765           JUNCTION        0.35          1.014        0.086
  YS02001767           JUNCTION        0.32          1.030        0.000
  YS02001770           JUNCTION        0.30          0.920        0.000
  YS02001774           JUNCTION        0.37          1.020        0.030
  YS02001779           JUNCTION        0.22          0.680        0.000
  YS02001783           JUNCTION        0.33          0.484        1.116
  YS02001784           JUNCTION        0.31          0.351        1.139
  YS02001786           JUNCTION        0.23          0.103        1.327
  YS02001882           JUNCTION        0.29          0.830        0.000
  YS02001884           JUNCTION        0.29          0.870        0.000
  YS02001887           JUNCTION        0.32          0.950        0.000
  YS02001890           JUNCTION        0.33          0.760        0.000
  YS02001895           JUNCTION        0.28          0.750        0.000
  YS02001898           JUNCTION        0.27          0.740        0.000
  YS02001901           JUNCTION        0.31          0.870        0.000
  YS02001904           JUNCTION        0.30          0.835        0.015
  YS02001907           JUNCTION        0.48          0.950        0.000
  YS02001910           JUNCTION        0.35          1.039        0.061
  YS02001915           JUNCTION        0.28          1.000        0.000
  YS02001918           JUNCTION        0.22          0.810        0.000
  YS02001920           JUNCTION        0.23          1.140        0.000
  YS02001923           JUNCTION        0.01          0.820        0.000
  YS02001926           JUNCTION        0.02          0.900        0.000
  YS02001929           JUNCTION        0.01          0.780        0.000
  YS02006553           JUNCTION        0.49          0.993        0.197
  YS02006556           JUNCTION        0.42          0.928        0.422
  YS02006558           JUNCTION        0.41          0.912        0.488
  YS02006561           JUNCTION        0.18          0.178        0.972
  YS02163301           JUNCTION        0.59          0.998        0.032
  YS02163601           JUNCTION        0.62          1.080        0.000
  YS02164001           JUNCTION        0.55          1.045        0.055
  
  
  *********************
  Node Flooding Summary
  *********************
  
  Flooding refers to all water that overflows a node, whether it ponds or not.
  --------------------------------------------------------------------------
                                                             Total   Maximum
                                 Maximum   Time of Max       Flood    Ponded
                        Hours       Rate    Occurrence      Volume     Depth
  Node                 Flooded       LPS   days hr:min    10^6 ltr    Meters
  --------------------------------------------------------------------------
  WS02006242              0.01      1.57      0  03:04       0.000     0.000
  WS02006248              0.01     16.77      0  03:04       0.000     0.000
  WS02006249              0.77    104.14      0  03:04       0.194     0.000
  WS02006252              0.01    245.63      0  00:00       0.000     0.000
  WS02006256              1.20    293.19      0  00:00       0.373     0.000
  YS02001580              0.01     95.56      0  01:58       0.000     0.000
  YS02001583              0.01    215.06      0  01:58       0.000     0.000
  YS02001586              0.27    176.03      0  02:04       0.100     0.000
  YS02001590              0.01     78.23      0  01:56       0.000     0.000
  YS02001593              0.01     12.06      0  01:56       0.000     0.000
  YS02001600              0.01      3.17      0  01:57       0.000     0.000
  YS02001601              0.41    806.81      0  02:02       0.647     0.000
  YS02001602              0.33     62.00      0  02:11       0.066     0.000
  YS02001605              0.01      3.57      0  01:58       0.000     0.000
  YS02001610              0.28    348.56      0  02:04       0.213     0.000
  YS02001616              0.01     28.91      0  01:58       0.000     0.000
  YS02001619              0.01     22.49      0  01:58       0.000     0.000
  YS02001622              0.01    292.36      0  01:58       0.001     0.000
  YS02001625              0.25    956.02      0  02:04       0.415     0.000
  YS02001629              0.06    310.52      0  01:58       0.015     0.000
  YS02001633              0.01      5.45      0  01:59       0.000     0.000
  YS02001644              0.04    367.98      0  02:02       0.035     0.000
  YS02001767              0.01    178.30      0  02:00       0.000     0.000
  YS02001770              0.01     32.47      0  02:01       0.000     0.000
  YS02001779              0.03    497.44      0  02:00       0.010     0.000
  YS02001882              0.01     72.53      0  01:59       0.000     0.000
  YS02001884              0.01     40.69      0  01:59       0.000     0.000
  YS02001887              0.01      4.50      0  02:00       0.000     0.000
  YS02001890              0.05     71.91      0  02:01       0.008     0.000
  YS02001895              0.01     79.41      0  01:59       0.000     0.000
  YS02001898              0.01    202.53      0  01:59       0.000     0.000
  YS02001901              0.01      5.94      0  01:59       0.000     0.000
  YS02001907              0.17   1152.40      0  02:01       0.337     0.000
  YS02001915              0.01    221.32      0  01:59       0.000     0.000
  YS02001918              0.01    241.98      0  02:01       0.003     0.000
  YS02001920              0.01     70.76      0  02:01       0.000     0.000
  YS02001923              0.01    247.49      0  02:01       0.001     0.000
  YS02001926              0.01    340.65      0  02:01       0.002     0.000
  YS02001929              0.01    506.38      0  02:00       0.001     0.000
  YS02163601              0.01     11.25      0  01:59       0.000     0.000
  
  
  **********************
  Storage Volume Summary
  **********************
  
  ------------------------------------------------------------------------------------------------
                         Average    Avg   Evap  Exfil     Maximum    Max    Time of Max    Maximum
                          Volume   Pcnt   Pcnt   Pcnt      Volume   Pcnt     Occurrence    Outflow
  Storage Unit           1000 m³   Full   Loss   Loss     1000 m³   Full    days hr:min        LPS
  ------------------------------------------------------------------------------------------------
  CC-storage               2.150   33.5    0.0    0.0       4.205   65.6       0  02:21    1783.53
  JK-storage               0.149   51.0    0.0    0.0       0.212   72.9       0  02:03    2300.00
  XR-storage               0.943   65.5    0.0    0.0       1.111   77.2       0  08:00     380.00
  
  
  ***********************
  Outfall Loading Summary
  ***********************
  
  -----------------------------------------------------------
                         Flow       Avg       Max       Total
                         Freq      Flow      Flow      Volume
  Outfall Node           Pcnt       LPS       LPS    10^6 ltr
  -----------------------------------------------------------
  CC-1                  28.06    683.00    683.00       3.219
  CC-2                  26.00    683.00    683.00       3.005
  JK-1                  13.81   1000.00   1000.00       1.490
  JK-2                   0.26   1000.00   1000.00       0.048
  WSC                   99.93    356.16    752.49       8.707
  -----------------------------------------------------------
  System                33.61   3722.16   3366.23      16.470
  
  
  ********************
  Link Flow Summary
  ********************
  
  -----------------------------------------------------------------------------
                                 Maximum  Time of Max   Maximum    Max/    Max/
                                  |Flow|   Occurrence   |Veloc|    Full    Full
  Link                 Type          LPS  days hr:min     m/sec    Flow   Depth
  -----------------------------------------------------------------------------
  1                    CONDUIT    752.49     0  02:50      3.08    0.26    0.35
  WS02001211WS02001212 CONDUIT    202.74     0  02:54      0.54    0.15    0.51
  WS02001212WS02001213 CONDUIT    204.41     0  02:55      1.04    0.32    0.36
  WS02001213WS02003059 CONDUIT    208.93     0  03:28      0.47    0.34    0.67
  WS02003059WS02003060 CONDUIT    215.46     0  03:29      0.67    0.14    0.58
  WS02003060WS02003069 CONDUIT    750.63     0  02:36      1.77    0.29    0.40
  WS02003066WSF200     CONDUIT    536.60     0  02:30      2.74    0.09    0.23
  WS02003067WS02003066 CONDUIT    536.55     0  02:30      1.21    0.17    0.42
  WS02003069WS02003072 CONDUIT    750.82     0  02:37      1.51    0.36    0.45
  WS02003072WS02003073 CONDUIT    750.74     0  02:37      1.60    1.62    0.43
  WS02004138WS02004139 CONDUIT    190.84     0  00:29      2.17    0.04    0.33
  WS02004139WS02001211 CONDUIT    193.18     0  02:54      0.54    0.24    0.47
  WS02004401WS02004402 CONDUIT    537.96     0  02:27      0.97    0.65    0.86
  WS02004402WS02004403 CONDUIT    538.28     0  02:26      0.97    0.77    0.88
  WS02004403WS02004404 CONDUIT    537.42     0  02:27      0.92    0.39    0.93
  WS02004404WS02004405 CONDUIT    537.67     0  02:28      1.08    5.27    0.96
  WS02004405WS02004406 CONDUIT    538.27     0  02:26      0.99    1.06    0.96
  WS02004406WS02004407 CONDUIT    537.45     0  02:28      1.04    0.24    0.63
  WS02004407WS02004409 CONDUIT    537.14     0  02:28      1.57    0.19    0.48
  WS02004409WS02004410 CONDUIT    536.95     0  02:28      1.05    0.69    0.67
  WS02004410WS02004411 CONDUIT    536.81     0  02:29      1.00    0.73    0.69
  WS02004411WS02004412 CONDUIT    536.69     0  02:29      0.92    0.76    0.69
  WS02004412WS02004413 CONDUIT    536.78     0  02:29      0.82    0.36    0.78
  WS02004413WS02003067 CONDUIT    536.49     0  02:30      1.11    0.23    0.59
  WS02006109WS02006110 CONDUIT    573.51     0  03:04      1.14    1.10    1.00
  WS02006110WS02006113 CONDUIT    584.62     0  03:04      1.40    0.53    0.79
  WS02006111WS02006112 CONDUIT    543.95     0  03:04      1.82    0.26    0.67
  WS02006112WS02006115 CONDUIT    550.01     0  03:05      0.87    0.32    0.87
  WS02006113WS02006111 CONDUIT    565.62     0  03:04      2.47    0.68    0.47
  WS02006115WS02006116 CONDUIT    540.09     0  02:25      1.10    0.69    0.76
  WS02006116WS02004401 CONDUIT    538.67     0  02:25      0.98    0.74    0.84
  WS02006228WS02006109 CONDUIT    568.83     0  03:04      1.13    2.49    1.00
  WS02006229WS02006228 CONDUIT    563.08     0  03:04      1.15    1.86    1.00
  WS02006230WS02006229 CONDUIT    558.27     0  03:04      1.45   12.42    1.00
  WS02006231WS02006230 CONDUIT    572.98     0  03:03      1.55    8.69    1.00
  WS02006232WS02006231 CONDUIT    569.94     0  03:03      1.48    1.19    1.00
  WS02006234WS02006232 CONDUIT    568.90     0  03:03      1.48    1.15    1.00
  WS02006235WS02006234 CONDUIT    564.89     0  03:03      1.47    5.96    1.00
  WS02006238WS02006235 CONDUIT    420.53     0  02:46      1.57    0.94    1.00
  WS02006239WS02006238 CONDUIT    420.46     0  02:46      1.11    1.35    1.00
  WS02006240WS02006239 CONDUIT    420.42     0  02:46      1.24    1.32    1.00
  WS02006242WS02006240 CONDUIT    418.41     0  02:46      1.12    1.66    1.00
  WS02006243WS02006242 CONDUIT    419.01     0  02:46      1.39    0.90    1.00
  WS02006245WS02006243 CONDUIT    418.23     0  02:46      1.45    1.24    1.00
  WS02006247WS02006245 CONDUIT    417.08     0  03:05      1.44    3.31    1.00
  WS02006248WS02006247 CONDUIT    416.61     0  02:46      1.45    0.91    1.00
  WS02006249WS02006248 CONDUIT    417.38     0  02:46      1.37    2.29    1.00
  WS02006251WS02006249 CONDUIT    461.87     0  03:20      1.99    1.33    1.00
  WS02006252WS02006251 CONDUIT    407.05     0  02:03     25.11    1.49    1.00
  WS02006256WS02006235 CONDUIT    289.22     0  01:54      4.23    3.06    1.00
  WSF200WS02003060     CONDUIT    536.92     0  02:30      1.76    0.12    0.32
  YS02001580YS02001583 CONDUIT    146.39     0  01:58      0.84    0.57    1.00
  YS02001583YS02001586 CONDUIT    189.40     0  01:58      0.83    0.29    1.00
  YS02001586YS02001590 CONDUIT    318.17     0  02:03      1.28    0.56    1.00
  YS02001590YS02001593 CONDUIT    318.30     0  02:03      1.13    2.00    1.00
  YS02001593YS02001596 CONDUIT    317.99     0  02:09      1.74    0.50    1.00
  YS02001596YS02001600 CONDUIT    318.02     0  02:12      1.22    0.62    1.00
  YS02001600YS02001601 CONDUIT    318.00     0  02:03      1.12    0.55    1.00
  YS02001601YS02001602 CONDUIT    553.65     0  01:57      1.96    2.00    1.00
  YS02001602YS02001605 CONDUIT    553.51     0  01:57      1.96   11.71    1.00
  YS02001605YS02001607 CONDUIT    553.27     0  01:57      1.96    3.03    1.00
  YS02001607YS02001610 CONDUIT    547.99     0  01:57      0.70    0.52    1.00
  YS02001610YS02001613 CONDUIT    555.23     0  01:57      0.71    0.64    1.00
  YS02001613YS02001616 CONDUIT    574.23     0  01:57      0.73    0.49    1.00
  YS02001616YS02001619 CONDUIT    534.55     0  01:58      0.68    0.93    1.00
  YS02001619YS02001622 CONDUIT   1002.83     0  01:58      1.28    1.48    1.00
  YS02001622YS02001625 CONDUIT    957.06     0  01:58      1.22    0.51    1.00
  YS02001625YS02001629 CONDUIT    957.08     0  01:58      1.22    0.46    1.00
  YS02001629YS02163301 CONDUIT    928.73     0  01:59      1.18    1.14    1.00
  YS02001633YS02163601 CONDUIT   1446.86     0  01:59      1.84    1.52    1.00
  YS02001641YS02001644 CONDUIT   1446.10     0  01:59      1.84    4.67    1.00
  YS02001644YS02001647 CONDUIT   1912.19     0  01:59      2.44    1.12    1.00
  YS02001647YS02001649 CONDUIT   1887.31     0  01:59      2.40    1.00    1.00
  YS02001649YS02001757 CONDUIT   2145.29     0  02:00      2.73    1.30    1.00
  YS02001652YS02001649 CONDUIT    774.92     0  02:03      0.99    0.38    1.00
  YS02001655YS02001652 CONDUIT    776.20     0  02:03      1.39    0.38    1.00
  YS02001658YS02001655 CONDUIT    776.66     0  02:03      2.00    0.33    1.00
  YS02001661YS02001658 CONDUIT    777.58     0  02:03      2.42    0.31    1.00
  YS02001664YS02001661 CONDUIT    773.20     0  02:02      2.43    0.24    0.81
  YS02001745YS02001748 CONDUIT    680.13     0  02:01      2.28    0.26    0.95
  YS02001748YS02001751 CONDUIT    515.30     0  02:02      1.79    0.26    1.00
  YS02001751YS02001754 CONDUIT    517.47     0  02:02      1.52    0.25    1.00
  YS02001754YS02001757 CONDUIT    519.89     0  02:02      0.66    0.21    1.00
  YS02001757CaochengTiaoxuchi CONDUIT   3274.76     0  02:02      4.17    1.42    1.00
  YS02001759YS02001757 CONDUIT   1295.76     0  02:01      1.65    0.92    1.00
  YS02001762YS02001759 CONDUIT    757.35     0  02:01      0.96    0.87    1.00
  YS02001765YS02001762 CONDUIT    753.80     0  02:01      0.96    0.71    1.00
  YS02001767YS02001765 CONDUIT    750.03     0  02:01      0.95    0.94    1.00
  YS02001770YS02001767 CONDUIT    746.25     0  02:01      0.95    2.96    1.00
  YS02001774YS02001770 CONDUIT    531.03     0  02:00      0.68    0.34    1.00
  YS02001779YS02001774 CONDUIT    547.51     0  02:00      0.70    0.28    1.00
  YS02001783YS02001784 CONDUIT   1154.15     0  02:01      2.30    1.59    1.00
  YS02001784YS02001785 CONDUIT   1155.22     0  02:01      2.30    2.69    1.00
  YS02001786YS02001788 CONDUIT   1157.38     0  02:01      2.47    2.23    0.89
  YS02001788YS02001790 CONDUIT   1169.96     0  02:02      2.72    0.86    0.84
  YS02001790YS02001791 CONDUIT   1286.90     0  02:03      3.43    1.40    0.70
  YS02001791YS02001793 CONDUIT   1237.84     0  02:03      6.73    0.53    0.45
  YS02001793JiankangQianchi CONDUIT   1223.25     0  02:01      2.46    0.10    0.65
  YS02001882YS02001884 CONDUIT     74.19     0  01:59      0.10    0.09    1.00
  YS02001884YS02001887 CONDUIT    130.28     0  01:58      0.17    0.17    1.00
  YS02001887YS02001890 CONDUIT    585.54     0  02:01      0.75    1.00    1.00
  YS02001890YS02001895 CONDUIT    559.19     0  02:00      0.71    0.26    1.00
  YS02001895YS02001898 CONDUIT    563.35     0  02:00      0.72    0.98    1.00
  YS02001898YS02001901 CONDUIT    567.80     0  02:00      0.72    0.37    1.00
  YS02001901YS02001904 CONDUIT    569.77     0  02:00      0.73    0.88    1.00
  YS02001904YS02001907 CONDUIT    569.80     0  02:00      0.73    0.20    1.00
  YS02001907YS02006553 CONDUIT    793.55     0  02:12      0.88    0.93    1.00
  YS02001910YS02001907 CONDUIT   1054.87     0  02:01      1.34    0.59    1.00
  YS02001915YS02001910 CONDUIT   1054.64     0  02:01      1.34    0.52    1.00
  YS02001918YS02001915 CONDUIT    588.14     0  02:00      0.75    0.32    1.00
  YS02001920YS02001918 CONDUIT    557.14     0  02:00      0.71    0.54    1.00
  YS02001923YS02001920 CONDUIT    564.30     0  02:00      0.74    0.25    1.00
  YS02001926YS02001923 CONDUIT    764.00     0  02:00      1.20    1.09    1.00
  YS02001929YS02001926 CONDUIT    558.39     0  02:00      1.21    0.27    1.00
  YS02006553YS02006556 CONDUIT    794.07     0  02:12      1.01    0.68    1.00
  YS02006556YS02006558 CONDUIT    795.43     0  02:12      1.01    0.63    1.00
  YS02006558YS02006561 CONDUIT   1156.37     0  02:00      4.09    2.56    1.00
  YS02006561YS02001783 CONDUIT   1154.48     0  02:01      2.30    0.60    1.00
  YS02163301YS02001633 CONDUIT    928.98     0  01:59      1.18    0.87    1.00
  YS02163601YS02164001 CONDUIT   1446.77     0  01:59      1.84    1.28    1.00
  YS02164001YS02001641 CONDUIT   1445.86     0  01:59      1.84    1.97    1.00
  CC-R1                PUMP       683.00     0  00:00              1.00
  CC-R2                PUMP       683.00     0  00:00              1.00
  CC-S1                PUMP       200.00     0  00:00              1.00
  CC-S2                PUMP       200.00     0  00:00              1.00
  JK-R1                PUMP      1000.00     0  00:00              1.00
  JK-R2                PUMP      1000.00     0  00:00              1.00
  JK-S                 PUMP       300.00     0  00:00              1.00
  XR-1                 PUMP        95.00     0  00:00              1.00
  XR-2                 PUMP        95.00     0  00:00              1.00
  XR-3                 PUMP        95.00     0  00:00              1.00
  XR-4                 PUMP        95.00     0  00:00              1.00
  
  
  ***************************
  Flow Classification Summary
  ***************************
  
  -------------------------------------------------------------------------------------
                      Adjusted    ---------- Fraction of Time in Flow Class ---------- 
                       /Actual         Up    Down  Sub   Sup   Up    Down  Norm  Inlet 
  Conduit               Length    Dry  Dry   Dry   Crit  Crit  Crit  Crit  Ltd   Ctrl  
  -------------------------------------------------------------------------------------
  1                       1.00   0.00  0.00  0.00  0.00  1.00  0.00  0.00  0.16  0.00
  WS02001211WS02001212    1.00   0.00  0.02  0.00  0.98  0.00  0.00  0.00  0.00  0.00
  WS02001212WS02001213    1.00   0.02  0.00  0.00  0.17  0.00  0.80  0.00  0.00  0.00
  WS02001213WS02003059    1.00   0.00  0.01  0.00  0.99  0.00  0.00  0.00  0.00  0.00
  WS02003059WS02003060    1.00   0.00  0.00  0.00  1.00  0.00  0.00  0.00  0.03  0.00
  WS02003060WS02003069    1.00   0.00  0.00  0.00  0.98  0.02  0.00  0.00  0.71  0.00
  WS02003066WSF200        1.00   0.13  0.00  0.00  0.00  0.87  0.00  0.00  0.77  0.00
  WS02003067WS02003066    1.00   0.10  0.02  0.00  0.88  0.00  0.00  0.00  0.00  0.00
  WS02003069WS02003072    1.00   0.00  0.00  0.00  1.00  0.00  0.00  0.00  0.80  0.00
  WS02003072WS02003073    1.00   0.00  0.00  0.00  0.00  0.00  0.00  1.00  0.00  0.00
  WS02004138WS02004139    1.00   0.00  0.00  0.00  0.97  0.01  0.00  0.02  0.98  0.00
  WS02004139WS02001211    1.00   0.00  0.00  0.00  0.99  0.00  0.00  0.00  0.00  0.00
  WS02004401WS02004402    1.00   0.02  0.00  0.00  0.98  0.00  0.00  0.00  0.00  0.00
  WS02004402WS02004403    1.00   0.02  0.00  0.00  0.97  0.00  0.00  0.00  0.00  0.00
  WS02004403WS02004404    1.00   0.00  0.03  0.00  0.97  0.00  0.00  0.00  0.00  0.00
  WS02004404WS02004405    1.00   0.00  0.00  0.00  1.00  0.00  0.00  0.00  0.01  0.00
  WS02004405WS02004406    1.00   0.00  0.00  0.00  1.00  0.00  0.00  0.00  0.00  0.00
  WS02004406WS02004407    1.00   0.00  0.05  0.00  0.95  0.00  0.00  0.00  0.00  0.00
  WS02004407WS02004409    1.00   0.05  0.00  0.00  0.94  0.01  0.00  0.00  0.94  0.00
  WS02004409WS02004410    1.00   0.05  0.00  0.00  0.95  0.00  0.00  0.00  0.03  0.00
  WS02004410WS02004411    1.00   0.05  0.00  0.00  0.95  0.00  0.00  0.00  0.01  0.00
  WS02004411WS02004412    1.00   0.05  0.00  0.00  0.95  0.00  0.00  0.00  0.00  0.00
  WS02004412WS02004413    1.00   0.05  0.00  0.00  0.94  0.00  0.00  0.00  0.01  0.00
  WS02004413WS02003067    1.00   0.06  0.04  0.00  0.00  0.00  0.90  0.00  0.00  0.00
  WS02006109WS02006110    1.00   0.00  0.01  0.00  0.98  0.00  0.01  0.00  0.00  0.00
  WS02006110WS02006113    1.00   0.01  0.01  0.00  0.98  0.00  0.00  0.00  0.00  0.00
  WS02006111WS02006112    1.00   0.02  0.00  0.00  0.98  0.00  0.00  0.00  0.98  0.00
  WS02006112WS02006115    1.00   0.02  0.00  0.00  0.97  0.00  0.00  0.00  0.00  0.00
  WS02006113WS02006111    1.00   0.02  0.00  0.00  0.00  0.98  0.00  0.00  0.08  0.00
  WS02006115WS02006116    1.00   0.02  0.00  0.00  0.97  0.00  0.00  0.01  0.00  0.00
  WS02006116WS02004401    1.00   0.02  0.00  0.00  0.98  0.00  0.00  0.00  0.00  0.00
  WS02006228WS02006109    1.00   0.00  0.00  0.00  1.00  0.00  0.00  0.00  0.00  0.00
  WS02006229WS02006228    1.00   0.00  0.00  0.00  0.99  0.00  0.00  0.01  0.00  0.00
  WS02006230WS02006229    1.00   0.00  0.00  0.00  0.99  0.00  0.00  0.01  0.00  0.00
  WS02006231WS02006230    1.00   0.00  0.00  0.00  0.16  0.00  0.83  0.00  0.00  0.00
  WS02006232WS02006231    1.00   0.00  0.00  0.00  0.98  0.00  0.01  0.00  0.00  0.00
  WS02006234WS02006232    1.00   0.00  0.00  0.00  1.00  0.00  0.00  0.00  0.37  0.00
  WS02006235WS02006234    1.00   0.00  0.00  0.00  0.59  0.00  0.41  0.00  0.00  0.00
  WS02006238WS02006235    1.00   0.00  0.00  0.00  1.00  0.00  0.00  0.00  0.00  0.00
  WS02006239WS02006238    1.00   0.00  0.00  0.00  1.00  0.00  0.00  0.00  0.51  0.00
  WS02006240WS02006239    1.00   0.00  0.00  0.00  0.42  0.00  0.00  0.57  0.02  0.00
  WS02006242WS02006240    1.00   0.00  0.00  0.00  1.00  0.00  0.00  0.00  0.00  0.00
  WS02006243WS02006242    1.00   0.00  0.00  0.00  0.99  0.00  0.00  0.01  0.76  0.00
  WS02006245WS02006243    1.00   0.00  0.00  0.00  0.44  0.00  0.00  0.56  0.02  0.00
  WS02006247WS02006245    1.00   0.00  0.00  0.00  0.98  0.00  0.00  0.01  0.00  0.00
  WS02006248WS02006247    1.00   0.00  0.00  0.00  0.99  0.00  0.00  0.01  0.24  0.00
  WS02006249WS02006248    1.00   0.00  0.00  0.00  0.27  0.00  0.73  0.00  0.00  0.00
  WS02006251WS02006249    1.00   0.00  0.00  0.00  0.99  0.01  0.00  0.00  0.76  0.00
  WS02006252WS02006251    1.00   0.00  0.28  0.00  0.10  0.00  0.62  0.00  0.00  0.00
  WS02006256WS02006235    1.00   0.00  0.00  0.00  0.99  0.01  0.00  0.00  0.00  0.00
  WSF200WS02003060        1.00   0.00  0.13  0.00  0.72  0.16  0.00  0.00  0.70  0.00
  YS02001580YS02001583    1.00   0.24  0.60  0.00  0.16  0.00  0.00  0.00  0.69  0.00
  YS02001583YS02001586    1.00   0.50  0.29  0.00  0.21  0.00  0.00  0.00  0.69  0.00
  YS02001586YS02001590    1.00   0.13  0.00  0.00  0.37  0.04  0.00  0.47  0.33  0.00
  YS02001590YS02001593    1.00   0.13  0.01  0.00  0.08  0.00  0.79  0.00  0.00  0.00
  YS02001593YS02001596    1.00   0.14  0.00  0.00  0.09  0.01  0.00  0.77  0.01  0.00
  YS02001596YS02001600    1.00   0.14  0.00  0.00  0.15  0.02  0.00  0.69  0.05  0.00
  YS02001600YS02001601    1.00   0.13  0.01  0.00  0.86  0.00  0.00  0.00  0.65  0.00
  YS02001601YS02001602    1.00   0.13  0.01  0.00  0.86  0.00  0.00  0.00  0.00  0.00
  YS02001602YS02001605    1.00   0.14  0.00  0.00  0.86  0.00  0.00  0.00  0.00  0.00
  YS02001605YS02001607    1.00   0.14  0.00  0.00  0.86  0.00  0.00  0.00  0.00  0.00
  YS02001607YS02001610    1.00   0.13  0.01  0.00  0.86  0.00  0.00  0.00  0.02  0.00
  YS02001610YS02001613    1.00   0.13  0.00  0.00  0.87  0.00  0.00  0.00  0.01  0.00
  YS02001613YS02001616    1.00   0.13  0.00  0.00  0.87  0.00  0.00  0.00  0.01  0.00
  YS02001616YS02001619    1.00   0.13  0.00  0.00  0.87  0.00  0.00  0.00  0.00  0.00
  YS02001619YS02001622    1.00   0.13  0.00  0.00  0.87  0.00  0.00  0.00  0.36  0.00
  YS02001622YS02001625    1.00   0.13  0.00  0.00  0.87  0.00  0.00  0.00  0.06  0.00
  YS02001625YS02001629    1.00   0.13  0.06  0.00  0.11  0.00  0.70  0.00  0.00  0.00
  YS02001629YS02163301    1.00   0.16  0.01  0.00  0.83  0.00  0.00  0.00  0.00  0.00
  YS02001633YS02163601    1.00   0.00  0.01  0.00  0.99  0.00  0.00  0.00  0.15  0.00
  YS02001641YS02001644    1.00   0.00  0.01  0.00  0.99  0.00  0.00  0.00  0.00  0.00
  YS02001644YS02001647    1.00   0.00  0.18  0.00  0.82  0.00  0.00  0.00  0.00  0.00
  YS02001647YS02001649    1.00   0.00  0.18  0.00  0.55  0.27  0.00  0.00  0.60  0.00
  YS02001649YS02001757    1.00   0.00  0.00  0.00  0.70  0.30  0.00  0.00  0.58  0.00
  YS02001652YS02001649    1.00   0.00  0.00  0.00  0.96  0.04  0.00  0.00  0.79  0.00
  YS02001655YS02001652    1.00   0.00  0.00  0.00  0.12  0.02  0.00  0.86  0.04  0.00
  YS02001658YS02001655    1.00   0.00  0.15  0.00  0.64  0.21  0.00  0.00  0.74  0.00
  YS02001661YS02001658    1.00   0.14  0.00  0.00  0.51  0.35  0.00  0.00  0.73  0.00
  YS02001664YS02001661    1.00   0.13  0.00  0.00  0.79  0.09  0.00  0.00  0.86  0.00
  YS02001745YS02001748    1.00   0.00  0.00  0.00  0.05  0.01  0.00  0.94  0.04  0.00
  YS02001748YS02001751    1.00   0.00  0.00  0.00  0.82  0.18  0.00  0.00  0.79  0.00
  YS02001751YS02001754    1.00   0.00  0.00  0.00  0.10  0.00  0.00  0.89  0.02  0.00
  YS02001754YS02001757    1.00   0.00  0.00  0.00  1.00  0.00  0.00  0.00  0.89  0.00
  YS02001757CaochengTiaoxuchi    1.00   0.00  0.00  0.00  1.00  0.00  0.00  0.00  0.88  0.00
  YS02001759YS02001757    1.00   0.00  0.00  0.00  1.00  0.00  0.00  0.00  0.64  0.00
  YS02001762YS02001759    1.00   0.00  0.00  0.00  1.00  0.00  0.00  0.00  0.05  0.00
  YS02001765YS02001762    1.00   0.00  0.00  0.00  1.00  0.00  0.00  0.00  0.78  0.00
  YS02001767YS02001765    1.00   0.00  0.00  0.00  1.00  0.00  0.00  0.00  0.00  0.00
  YS02001770YS02001767    1.00   0.00  0.00  0.00  1.00  0.00  0.00  0.00  0.00  0.00
  YS02001774YS02001770    1.00   0.00  0.14  0.00  0.59  0.00  0.27  0.00  0.04  0.00
  YS02001779YS02001774    1.00   0.00  0.00  0.00  1.00  0.00  0.00  0.00  0.83  0.00
  YS02001783YS02001784    1.00   0.00  0.19  0.00  0.81  0.00  0.00  0.00  0.58  0.00
  YS02001784YS02001785    1.00   0.00  0.00  0.00  1.00  0.00  0.00  0.00  0.18  0.00
  YS02001786YS02001788    1.00   0.00  0.00  0.00  0.81  0.19  0.00  0.00  0.00  0.00
  YS02001788YS02001790    1.00   0.00  0.00  0.00  0.21  0.79  0.00  0.00  0.86  0.00
  YS02001790YS02001791    1.00   0.00  0.00  0.00  0.01  0.99  0.00  0.00  0.15  0.00
  YS02001791YS02001793    1.00   0.00  0.00  0.00  0.00  1.00  0.00  0.00  0.00  0.00
  YS02001793JiankangQianchi    1.00   0.00  0.00  0.00  0.99  0.00  0.00  0.00  0.97  0.00
  YS02001882YS02001884    1.00   0.16  0.01  0.00  0.83  0.00  0.00  0.00  0.00  0.00
  YS02001884YS02001887    1.00   0.06  0.05  0.00  0.89  0.00  0.00  0.00  0.00  0.00
  YS02001887YS02001890    1.00   0.00  0.00  0.00  0.97  0.00  0.03  0.00  0.00  0.00
  YS02001890YS02001895    1.00   0.00  0.17  0.00  0.82  0.00  0.00  0.00  0.00  0.00
  YS02001895YS02001898    1.00   0.18  0.00  0.00  0.80  0.00  0.02  0.00  0.00  0.00
  YS02001898YS02001901    1.00   0.18  0.00  0.00  0.82  0.00  0.00  0.00  0.01  0.00
  YS02001901YS02001904    1.00   0.18  0.00  0.00  0.82  0.00  0.00  0.00  0.00  0.00
  YS02001904YS02001907    1.00   0.00  0.17  0.00  0.82  0.00  0.00  0.00  0.00  0.00
  YS02001907YS02006553    1.00   0.00  0.02  0.00  0.98  0.00  0.00  0.00  0.00  0.00
  YS02001910YS02001907    1.00   0.00  0.00  0.00  0.97  0.00  0.00  0.03  0.12  0.00
  YS02001915YS02001910    1.00   0.00  0.00  0.00  0.96  0.04  0.00  0.00  0.17  0.00
  YS02001918YS02001915    1.00   0.00  0.01  0.00  0.98  0.02  0.00  0.00  0.79  0.00
  YS02001920YS02001918    1.00   0.00  0.01  0.00  0.99  0.00  0.00  0.00  0.00  0.00
  YS02001923YS02001920    1.00   0.00  0.00  0.00  1.00  0.00  0.00  0.00  0.95  0.00
  YS02001926YS02001923    1.00   0.00  0.07  0.00  0.04  0.00  0.89  0.00  0.00  0.00
  YS02001929YS02001926    1.00   0.00  0.13  0.00  0.87  0.00  0.00  0.00  0.84  0.00
  YS02006553YS02006556    1.00   0.01  0.00  0.00  0.99  0.00  0.00  0.00  0.03  0.00
  YS02006556YS02006558    1.00   0.00  0.00  0.00  1.00  0.00  0.00  0.00  0.00  0.00
  YS02006558YS02006561    1.00   0.19  0.00  0.00  0.03  0.78  0.00  0.00  0.18  0.00
  YS02006561YS02001783    1.00   0.19  0.00  0.00  0.06  0.75  0.00  0.00  0.72  0.00
  YS02163301YS02001633    1.00   0.00  0.16  0.00  0.84  0.00  0.00  0.00  0.00  0.00
  YS02163601YS02164001    1.00   0.00  0.08  0.00  0.92  0.00  0.00  0.00  0.00  0.00
  YS02164001YS02001641    1.00   0.01  0.07  0.00  0.92  0.00  0.00  0.00  0.06  0.00
  
  
  *************************
  Conduit Surcharge Summary
  *************************
  
  ----------------------------------------------------------------------------
                                                           Hours        Hours 
                         --------- Hours Full --------   Above Full   Capacity
  Conduit                Both Ends  Upstream  Dnstream   Normal Flow   Limited
  ----------------------------------------------------------------------------
  WS02003072WS02003073        0.01      0.01      0.01      1.37         0.01
  WS02004404WS02004405        0.01      0.01      0.01      1.61         0.01
  WS02004405WS02004406        0.01      0.01      0.01      0.62         0.01
  WS02006109WS02006110        0.72      0.72      1.27      0.75         0.01
  WS02006110WS02006113        0.01      0.01      1.27      0.01         0.01
  WS02006111WS02006112        0.01      0.01      1.33      0.01         0.01
  WS02006112WS02006115        0.01      0.01      0.64      0.01         0.01
  WS02006228WS02006109        1.24      1.28      1.24      1.39         1.24
  WS02006229WS02006228        1.23      1.24      1.23      1.34         1.23
  WS02006230WS02006229        1.30      1.32      1.30      2.48         1.30
  WS02006231WS02006230        0.72      0.72      0.78      1.99         0.01
  WS02006232WS02006231        0.76      0.76      1.27      0.79         0.01
  WS02006234WS02006232        1.21      1.21      1.27      0.78         0.78
  WS02006235WS02006234        0.93      0.93      1.23      1.81         0.01
  WS02006238WS02006235        1.25      1.25      1.26      0.01         0.01
  WS02006239WS02006238        1.22      1.23      1.25      1.22         1.13
  WS02006240WS02006239        1.21      1.22      1.21      1.22         1.07
  WS02006242WS02006240        1.21      1.21      1.23      1.28         0.01
  WS02006243WS02006242        1.20      1.20      1.22      0.01         0.01
  WS02006245WS02006243        1.20      1.20      1.20      0.50         0.55
  WS02006247WS02006245        1.20      1.20      1.20      1.44         1.19
  WS02006248WS02006247        1.19      1.19      1.20      0.01         0.01
  WS02006249WS02006248        1.19      1.19      1.19      1.41         0.01
  WS02006251WS02006249        1.19      1.19      1.19      1.30         1.17
  WS02006252WS02006251        1.37      1.37      1.37      1.37         0.01
  WS02006256WS02006235        1.82      1.85      3.95      1.21         0.01
  YS02001580YS02001583        0.35      0.35      0.39      0.01         0.01
  YS02001583YS02001586        0.36      0.36      0.47      0.01         0.01
  YS02001586YS02001590        0.47      0.47      0.52      0.01         0.01
  YS02001590YS02001593        0.53      0.53      0.54      0.56         0.01
  YS02001593YS02001596        0.53      0.53      0.61      0.01         0.01
  YS02001596YS02001600        0.64      0.64      0.72      0.01         0.01
  YS02001600YS02001601        0.77      0.77      1.04      0.01         0.01
  YS02001601YS02001602        0.92      0.92      1.08      0.72         0.01
  YS02001602YS02001605        0.87      0.87      0.92      1.86         0.01
  YS02001605YS02001607        0.83      0.87      0.83      0.99         0.83
  YS02001607YS02001610        0.49      0.49      0.51      0.01         0.01
  YS02001610YS02001613        0.49      0.49      0.51      0.01         0.01
  YS02001613YS02001616        0.46      0.46      0.49      0.01         0.01
  YS02001616YS02001619        0.45      0.45      0.46      0.01         0.01
  YS02001619YS02001622        0.44      0.45      0.44      0.55         0.42
  YS02001622YS02001625        0.44      0.44      0.58      0.01         0.01
  YS02001625YS02001629        0.40      0.40      0.58      0.01         0.01
  YS02001629YS02163301        0.58      0.58      0.59      0.14         0.13
  YS02001633YS02163601        0.60      0.60      0.62      0.28         0.28
  YS02001641YS02001644        0.52      0.55      0.52      1.14         0.51
  YS02001644YS02001647        0.35      0.35      0.52      0.04         0.01
  YS02001647YS02001649        0.35      0.35      0.45      0.01         0.01
  YS02001649YS02001757        0.45      0.45      0.49      0.10         0.11
  YS02001652YS02001649        0.32      0.32      0.45      0.01         0.01
  YS02001655YS02001652        0.19      0.19      0.30      0.01         0.01
  YS02001658YS02001655        0.07      0.07      0.19      0.01         0.01
  YS02001661YS02001658        0.01      0.01      0.07      0.01         0.01
  YS02001664YS02001661        0.01      0.01      0.01      0.01         0.01
  YS02001745YS02001748        0.01      0.01      0.01      0.01         0.01
  YS02001748YS02001751        0.05      0.05      0.11      0.01         0.01
  YS02001751YS02001754        0.11      0.11      0.22      0.01         0.01
  YS02001754YS02001757        0.25      0.25      0.49      0.01         0.01
  YS02001757CaochengTiaoxuchi        0.49      0.49      0.95      0.22         0.21
  YS02001759YS02001757        0.41      0.41      0.49      0.01         0.01
  YS02001762YS02001759        0.38      0.38      0.41      0.01         0.02
  YS02001765YS02001762        0.35      0.35      0.38      0.01         0.01
  YS02001767YS02001765        0.32      0.32      0.35      0.01         0.02
  YS02001770YS02001767        0.32      0.32      0.32      0.33         0.23
  YS02001774YS02001770        0.30      0.30      0.37      0.01         0.01
  YS02001779YS02001774        0.22      0.22      0.37      0.01         0.01
  YS02001783YS02001784        0.31      0.33      0.31      0.43         0.31
  YS02001784YS02001785        0.23      0.31      0.23      0.59         0.23
  YS02001786YS02001788        0.01      0.23      0.01      0.50         0.01
  YS02001790YS02001791        0.01      0.01      0.01      0.30         0.01
  YS02001793JiankangQianchi        0.01      0.01      7.70      0.01         0.01
  YS02001882YS02001884        0.29      0.29      0.29      0.01         0.01
  YS02001884YS02001887        0.31      0.31      0.32      0.01         0.01
  YS02001887YS02001890        0.33      0.33      0.34      0.01         0.01
  YS02001890YS02001895        0.28      0.28      0.35      0.01         0.01
  YS02001895YS02001898        0.27      0.27      0.28      0.01         0.01
  YS02001898YS02001901        0.28      0.28      0.31      0.01         0.01
  YS02001901YS02001904        0.30      0.30      0.31      0.01         0.01
  YS02001904YS02001907        0.30      0.30      0.49      0.01         0.01
  YS02001907YS02006553        0.60      0.60      0.65      0.01         0.01
  YS02001910YS02001907        0.35      0.35      0.48      0.01         0.01
  YS02001915YS02001910        0.28      0.28      0.35      0.01         0.01
  YS02001918YS02001915        0.22      0.22      0.28      0.01         0.01
  YS02001920YS02001918        0.21      0.22      0.23      0.01         0.01
  YS02001923YS02001920        0.17      0.17      0.23      0.01         0.01
  YS02001926YS02001923        0.01      0.01      0.01      0.01         0.01
  YS02001929YS02001926        0.01      0.01      0.01      0.01         0.01
  YS02006553YS02006556        0.42      0.42      0.49      0.01         0.01
  YS02006556YS02006558        0.45      0.45      0.50      0.01         0.01
  YS02006558YS02006561        0.25      0.41      0.25      0.56         0.25
  YS02006561YS02001783        0.18      0.18      0.33      0.01         0.01
  YS02163301YS02001633        0.59      0.59      0.61      0.01         0.01
  YS02163601YS02164001        0.55      0.55      0.62      0.04         0.01
  YS02164001YS02001641        0.55      0.55      0.55      0.56         0.46
  
  
  ***************
  Pumping Summary
  ***************
  
  ---------------------------------------------------------------------------------------------------------
                                                  Min       Avg       Max     Total     Power    % Time Off
                        Percent   Number of      Flow      Flow      Flow    Volume     Usage    Pump Curve
  Pump                 Utilized   Start-Ups       LPS       LPS       LPS  10^6 ltr     Kw-hr    Low   High
  ---------------------------------------------------------------------------------------------------------
  CC-R1                   16.36          13      0.00    683.00    683.00     3.218     58.35    0.0   31.8
  CC-R2                   15.27          13      0.00    683.00    683.00     3.003     54.37    0.0   34.0
  CC-S1                   18.55          13      0.00    200.00    200.00     1.068      6.45    0.0    0.0
  CC-S2                   17.13          13      0.00    200.00    200.00     0.987      5.96    0.0    0.0
  JK-R1                    5.17           8      0.00   1000.00   1000.00     1.490     17.02    0.0    0.0
  JK-R2                    0.16           1      0.00   1000.00   1000.00     0.047      0.36    0.0    0.0
  JK-S                    15.02          10      0.00    300.00    300.00     1.298     18.97    0.0    0.0
  XR-1                    97.91           2      0.00     95.00     95.00     2.679      9.60    0.0    0.0
  XR-2                    93.94           2      0.00     95.00     95.00     2.570      8.76    0.0    0.0
  XR-3                     0.00           1      0.00     95.00     95.00     0.000      0.00    0.0    0.0
  XR-4                     0.00           1      0.00     95.00     95.00     0.000      0.00    0.0    0.0
  

  Analysis begun on:  Wed Nov  5 16:32:21 2025
  Analysis ended on:  Wed Nov  5 16:32:24 2025
  Total elapsed time: 00:00:03