
  EPA STORM WATER MANAGEMENT MODEL - VERSION 5.2 (Build 5.2.4)
  PYSWMM TOOLKIT API - VERSION v1.0 (2023-11-27)
  ------------------------------------------------------------

  WARNING 04: minimum elevation drop used for Conduit WS02004404WS02004405
  WARNING 03: negative offset ignored for Link YS02001904YS02001907
  
  ****************
  Analysis Options
  ****************
  Flow Units ............... LPS
  Process Models:
    Rainfall/Runoff ........ YES
    RDII ................... NO
    Snowmelt ............... NO
    Groundwater ............ NO
    Flow Routing ........... YES
    Ponding Allowed ........ NO
    Water Quality .......... NO
  Infiltration Method ...... HORTON
  Flow Routing Method ...... DYNWAVE
  Surcharge Method ......... EXTRAN
  Starting Date ............ 08/28/2015 08:00:00
  Ending Date .............. 08/28/2015 16:00:00
  Antecedent Dry Days ...... 8.0
  Report Time Step ......... 00:01:00
  Wet Time Step ............ 00:01:00
  Dry Time Step ............ 00:01:00
  Routing Time Step ........ 30.00 sec
  Variable Time Step ....... YES
  Maximum Trials ........... 8
  Number of Threads ........ 4
  Head Tolerance ........... 0.001500 m
  
  
  **************************        Volume         Depth
  Runoff Quantity Continuity     hectare-m            mm
  **************************     ---------       -------
  Initial LID Storage ......         0.049         1.488
  Total Precipitation ......         1.917        57.802
  Evaporation Loss .........         0.000         0.000
  Infiltration Loss ........         0.075         2.251
  Surface Runoff ...........         1.413        42.605
  Final Storage ............         0.480        14.466
  Continuity Error (%) .....        -0.055
  
  
  **************************        Volume        Volume
  Flow Routing Continuity        hectare-m      10^6 ltr
  **************************     ---------     ---------
  Dry Weather Inflow .......         0.602         6.020
  Wet Weather Inflow .......         1.412        14.125
  Groundwater Inflow .......         0.000         0.000
  RDII Inflow ..............         0.000         0.000
  External Inflow ..........         0.105         1.045
  External Outflow .........         1.801        18.012
  Flooding Loss ............         0.293         2.931
  Evaporation Loss .........         0.000         0.000
  Exfiltration Loss ........         0.000         0.000
  Initial Stored Volume ....         0.303         3.031
  Final Stored Volume ......         0.335         3.347
  Continuity Error (%) .....        -0.286
  
  
  *************************
  Highest Continuity Errors
  *************************
  Node YS02001583 (-16.21%)
  Node YS02001884 (4.93%)
  Node YS02001774 (1.37%)
  
  
  ***************************
  Time-Step Critical Elements
  ***************************
  Link WS02004404WS02004405 (47.09%)
  Link WS02006238WS02006235 (21.52%)
  Link YS02001791YS02001793 (8.30%)
  Link WS02006252WS02006251 (4.53%)
  Link YS02006556YS02006558 (3.13%)
  
  
  ********************************
  Highest Flow Instability Indexes
  ********************************
  Link WS02006113WS02006111 (30)
  Link WS02006252WS02006251 (18)
  Link WS02006111WS02006112 (17)
  Link WS02006238WS02006235 (15)
  Link YS02001602YS02001605 (14)
  
  
  *********************************
  Most Frequent Nonconverging Nodes
  *********************************
  Node CC-1 (18.94%)
  Node CC-2 (18.94%)
  Node JK-1 (18.94%)
  Node JK-2 (18.94%)
  Node WSC (18.94%)
  
  
  *************************
  Routing Time Step Summary
  *************************
  Minimum Time Step           :     0.01 sec
  Average Time Step           :     3.68 sec
  Maximum Time Step           :     7.04 sec
  % of Time in Steady State   :     0.00
  Average Iterations per Step :     3.52
  % of Steps Not Converging   :    18.94
  Time Step Frequencies       :
     30.000 - 13.228 sec      :     0.00 %
     13.228 -  5.833 sec      :    32.33 %
      5.833 -  2.572 sec      :    24.33 %
      2.572 -  1.134 sec      :    31.06 %
      1.134 -  0.500 sec      :    12.29 %
  
  
  ***************************
  Subcatchment Runoff Summary
  ***************************
  
  ------------------------------------------------------------------------------------------------------------------------------
                            Total      Total      Total      Total     Imperv       Perv      Total       Total     Peak  Runoff
                           Precip      Runon       Evap      Infil     Runoff     Runoff     Runoff      Runoff   Runoff   Coeff
  Subcatchment                 mm         mm         mm         mm         mm         mm         mm    10^6 ltr      LPS
  ------------------------------------------------------------------------------------------------------------------------------
  sub60                     57.80       0.00       0.00       1.37      38.34       3.99      42.32        0.56   377.75   0.732
  sub61                     57.80       0.00       0.00       2.09      38.30       5.95      44.25        0.81   545.02   0.765
  sub62                     57.80       0.00       0.00       0.93      40.83       2.71      43.54        1.19   745.67   0.753
  sub63                     57.80       0.00       0.00       3.79      32.80       9.93      42.74        0.97   594.14   0.739
  sub64                     57.80       0.00       0.00       1.83      37.35       4.93      42.28        1.02   591.38   0.731
  sub65                     57.80       0.00       0.00       1.67      40.31       4.50      44.81        1.23   685.43   0.775
  sub66                     57.80       0.00       0.00       4.36      31.72       8.93      40.65        1.90   847.40   0.703
  sub67                     57.80       0.00       0.00       0.93      41.86       2.80      44.67        0.83   601.71   0.773
  sub68                     57.80       0.00       0.00       1.60      36.97       4.56      41.53        1.14   743.46   0.719
  sub69                     57.80       0.00       0.00       1.44      38.86       5.43      44.29        1.64   898.95   0.766
  sub70                     57.80       0.00       0.00       4.75      31.13      11.34      42.47        1.23   491.84   0.735
  sub71                     57.80       0.00       0.00       0.86      37.09       2.45      39.54        1.03   604.79   0.684
  sub72                     57.80       0.00       0.00       0.81      40.06       2.28      42.34        0.58   304.04   0.733
  

  ***********************
  LID Performance Summary
  ***********************

  --------------------------------------------------------------------------------------------------------------------
                                         Total      Evap     Infil   Surface    Drain    Initial     Final  Continuity
                                        Inflow      Loss      Loss   Outflow   Outflow   Storage   Storage       Error
  Subcatchment      LID Control             mm        mm        mm        mm        mm        mm        mm           %
  --------------------------------------------------------------------------------------------------------------------
  sub60             GreenRoof            57.80      0.00      0.00      0.00      0.00      7.05     64.94       -0.14
  sub61             GreenRoof            57.80      0.00      0.00      0.00      0.00      7.05     64.94       -0.14
  sub62             GreenRoof            57.80      0.00      0.00      0.00      0.00      7.05     64.94       -0.14
  sub63             GreenRoof            57.80      0.00      0.00      0.00      0.00      7.05     64.94       -0.14
  sub64             GreenRoof            57.80      0.00      0.00      0.00      0.00      7.05     64.94       -0.14
  sub65             GreenRoof            57.80      0.00      0.00      0.00      0.00      7.05     64.94       -0.14
  sub66             GreenRoof            57.80      0.00      0.00      0.00      0.00      7.05     64.94       -0.14
  sub67             GreenRoof            57.80      0.00      0.00      0.00      0.00      7.05     64.94       -0.14
  sub68             GreenRoof            57.80      0.00      0.00      0.00      0.00      7.05     64.94       -0.14
  sub69             GreenRoof            57.80      0.00      0.00      0.00      0.00      7.05     64.94       -0.14
  sub70             GreenRoof            57.80      0.00      0.00      0.00      0.00      7.05     64.94       -0.14
  sub71             GreenRoof            57.80      0.00      0.00      0.00      0.00      7.05     64.94       -0.14
  sub72             GreenRoof            57.80      0.00      0.00      0.00      0.00      7.05     64.94       -0.14
  
  ******************
  Node Depth Summary
  ******************
  
  ---------------------------------------------------------------------------------
                                 Average  Maximum  Maximum  Time of Max    Reported
                                   Depth    Depth      HGL   Occurrence   Max Depth
  Node                 Type       Meters   Meters   Meters  days hr:min      Meters
  ---------------------------------------------------------------------------------
  WS02001211           JUNCTION     0.60     0.64     5.48     0  03:06        0.64
  WS02001212           JUNCTION     0.33     0.38     5.45     0  03:06        0.38
  WS02001213           JUNCTION     0.53     0.65     5.41     0  03:05        0.65
  WS02003059           JUNCTION     0.59     0.72     5.40     0  03:05        0.72
  WS02003060           JUNCTION     0.30     0.45     5.38     0  03:04        0.45
  WS02003066           JUNCTION     0.16     0.30     5.85     0  03:03        0.30
  WS02003067           JUNCTION     0.43     0.70     6.02     0  03:03        0.70
  WS02003069           JUNCTION     0.34     0.51     5.10     0  03:05        0.51
  WS02003072           JUNCTION     0.40     0.58     4.95     0  03:05        0.58
  WS02003073           JUNCTION     0.23     0.35     4.41     0  03:05        0.35
  WS02004138           JUNCTION     0.13     0.14     7.39     0  00:29        0.14
  WS02004139           JUNCTION     0.54     0.58     5.49     0  03:07        0.58
  WS02004401           JUNCTION     0.52     0.85     6.85     0  02:38        0.85
  WS02004402           JUNCTION     0.56     0.88     6.84     0  02:38        0.88
  WS02004403           JUNCTION     0.58     0.89     6.82     0  02:38        0.89
  WS02004404           JUNCTION     0.65     0.96     6.81     0  02:39        0.96
  WS02004405           JUNCTION     0.65     0.96     6.81     0  02:39        0.96
  WS02004406           JUNCTION     0.66     0.96     6.79     0  02:39        0.96
  WS02004407           JUNCTION     0.14     0.30     6.61     0  02:39        0.30
  WS02004409           JUNCTION     0.31     0.67     6.44     0  03:01        0.67
  WS02004410           JUNCTION     0.34     0.68     6.40     0  03:01        0.68
  WS02004411           JUNCTION     0.37     0.69     6.37     0  03:01        0.69
  WS02004412           JUNCTION     0.39     0.70     6.34     0  03:02        0.70
  WS02004413           JUNCTION     0.54     0.86     6.33     0  03:03        0.86
  WS02006109           JUNCTION     0.58     1.28     7.90     0  02:07        1.00
  WS02006110           JUNCTION     0.58     1.38     7.96     0  02:07        0.94
  WS02006111           JUNCTION     0.14     0.29     6.99     0  02:33        0.29
  WS02006112           JUNCTION     0.67     1.08     6.97     0  02:08        1.07
  WS02006113           JUNCTION     0.22     0.46     7.35     0  02:18        0.46
  WS02006115           JUNCTION     0.41     0.75     6.89     0  02:38        0.75
  WS02006116           JUNCTION     0.49     0.83     6.87     0  02:38        0.83
  WS02006228           JUNCTION     0.57     1.51     8.17     0  02:07        1.04
  WS02006229           JUNCTION     0.54     1.59     8.28     0  02:07        1.07
  WS02006230           JUNCTION     0.54     1.97     8.72     0  02:07        1.20
  WS02006231           JUNCTION     0.35     1.47     8.60     0  02:07        0.96
  WS02006232           JUNCTION     0.47     1.56     8.60     0  02:07        1.18
  WS02006234           JUNCTION     0.41     1.76     8.91     0  02:16        1.22
  WS02006235           JUNCTION     0.45     2.00     9.16     0  02:16        1.34
  WS02006238           JUNCTION     0.48     2.13     9.28     0  02:16        1.39
  WS02006239           JUNCTION     0.44     2.03     9.24     0  02:16        1.41
  WS02006240           JUNCTION     0.42     1.88     9.18     0  02:16        1.38
  WS02006242           JUNCTION     0.47     1.55     8.82     0  02:07        1.45
  WS02006243           JUNCTION     0.40     1.44     8.86     0  02:07        1.33
  WS02006245           JUNCTION     0.41     1.36     8.85     0  02:07        1.26
  WS02006247           JUNCTION     0.42     1.29     8.79     0  02:07        1.22
  WS02006248           JUNCTION     0.39     1.10     8.69     0  01:45        1.10
  WS02006249           JUNCTION     0.42     1.09     8.69     0  01:45        1.09
  WS02006251           JUNCTION     0.42     1.45     9.12     0  02:16        1.23
  WS02006252           JUNCTION     0.26     1.50     9.74     0  00:00        0.79
  WS02006256           JUNCTION     1.04     2.35     9.28     0  00:00        2.35
  WSF200               JUNCTION     0.14     0.31     5.54     0  03:04        0.31
  YS02001580           JUNCTION     0.13     1.05     9.59     0  01:36        0.77
  YS02001583           JUNCTION     0.17     1.14     9.64     0  01:36        0.82
  YS02001586           JUNCTION     0.26     1.13     9.30     0  01:36        1.13
  YS02001590           JUNCTION     0.37     1.40     9.26     0  01:35        1.40
  YS02001593           JUNCTION     0.31     1.46     9.32     0  01:35        1.46
  YS02001596           JUNCTION     0.42     1.80     9.22     0  01:35        1.80
  YS02001600           JUNCTION     0.50     1.87     9.00     0  01:35        1.87
  YS02001601           JUNCTION     0.69     2.06     8.90     0  01:35        2.06
  YS02001602           JUNCTION     0.60     1.87     8.77     0  01:36        1.87
  YS02001605           JUNCTION     0.55     1.78     8.68     0  01:36        1.78
  YS02001607           JUNCTION     0.52     1.68     8.53     0  01:36        1.64
  YS02001610           JUNCTION     0.57     1.68     8.48     0  01:36        1.68
  YS02001613           JUNCTION     0.53     1.70     8.54     0  01:36        1.66
  YS02001616           JUNCTION     0.46     1.61     8.52     0  01:36        1.61
  YS02001619           JUNCTION     0.44     1.61     8.54     0  01:36        1.61
  YS02001622           JUNCTION     0.43     1.58     8.48     0  01:36        1.56
  YS02001625           JUNCTION     0.68     1.78     8.38     0  01:36        1.78
  YS02001629           JUNCTION     0.56     1.85     8.40     0  01:36        1.85
  YS02001633           JUNCTION     0.64     2.08     8.53     0  01:39        2.08
  YS02001641           JUNCTION     0.60     2.10     8.54     0  01:54        2.10
  YS02001644           JUNCTION     0.60     1.92     8.35     0  01:38        1.92
  YS02001647           JUNCTION     0.38     1.83     8.44     0  01:38        1.68
  YS02001649           JUNCTION     0.43     2.05     8.44     0  01:38        1.83
  YS02001652           JUNCTION     0.31     2.16     8.76     0  01:38        1.97
  YS02001655           JUNCTION     0.24     2.20     9.05     0  01:38        1.44
  YS02001658           JUNCTION     0.16     2.30     9.44     0  01:39        1.19
  YS02001661           JUNCTION     0.16     1.02     8.43     0  01:40        0.96
  YS02001664           JUNCTION     0.07     0.51     8.44     0  01:40        0.34
  YS02001745           JUNCTION     0.07     0.83     8.35     0  01:39        0.69
  YS02001748           JUNCTION     0.15     2.27     9.35     0  01:39        1.12
  YS02001751           JUNCTION     0.19     2.20     9.08     0  01:39        1.29
  YS02001754           JUNCTION     0.27     2.20     8.81     0  01:38        1.52
  YS02001757           JUNCTION     0.44     2.12     8.38     0  01:39        1.84
  YS02001759           JUNCTION     0.38     2.10     8.46     0  01:39        1.82
  YS02001762           JUNCTION     0.37     2.15     8.55     0  01:54        2.15
  YS02001765           JUNCTION     0.35     2.10     8.55     0  01:38        2.10
  YS02001767           JUNCTION     0.35     2.03     8.52     0  01:38        1.82
  YS02001770           JUNCTION     0.36     1.95     8.44     0  01:38        1.95
  YS02001774           JUNCTION     0.42     2.05     8.47     0  01:38        2.05
  YS02001779           JUNCTION     0.25     1.68     8.37     0  01:38        1.68
  YS02001783           JUNCTION     0.30     1.51     7.65     0  01:38        1.22
  YS02001784           JUNCTION     0.31     1.28     7.35     0  01:38        1.11
  YS02001786           JUNCTION     0.26     1.50     7.53     0  01:37        0.87
  YS02001788           JUNCTION     0.19     0.62     6.59     0  01:39        0.61
  YS02001790           JUNCTION     0.22     0.72     6.36     0  01:43        0.72
  YS02001791           JUNCTION     0.14     0.44     5.91     0  01:43        0.43
  YS02001793           JUNCTION     0.08     0.30     5.13     0  01:46        0.29
  YS02001882           JUNCTION     0.37     1.83     8.55     0  01:37        1.73
  YS02001884           JUNCTION     0.46     1.93     8.55     0  01:37        1.75
  YS02001887           JUNCTION     0.54     1.91     8.45     0  01:37        1.81
  YS02001890           JUNCTION     0.57     1.81     8.32     0  01:37        1.81
  YS02001895           JUNCTION     0.34     1.69     8.44     0  01:37        1.66
  YS02001898           JUNCTION     0.35     1.74     8.47     0  01:37        1.64
  YS02001901           JUNCTION     0.46     1.71     8.32     0  01:37        1.67
  YS02001904           JUNCTION     0.44     1.67     8.30     0  01:37        1.64
  YS02001907           JUNCTION     0.75     1.96     8.25     0  01:37        1.96
  YS02001910           JUNCTION     0.56     2.08     8.58     0  01:39        2.08
  YS02001915           JUNCTION     0.37     2.00     8.72     0  01:37        2.00
  YS02001918           JUNCTION     0.21     1.81     8.88     0  01:37        1.81
  YS02001920           JUNCTION     0.29     2.14     9.15     0  01:38        2.02
  YS02001923           JUNCTION     0.16     2.03     9.29     0  01:38        1.82
  YS02001926           JUNCTION     0.19     1.90     9.35     0  01:38        1.60
  YS02001929           JUNCTION     0.11     1.78     9.47     0  01:38        1.12
  YS02006553           JUNCTION     0.75     2.05     8.34     0  01:38        2.01
  YS02006556           JUNCTION     0.73     2.13     8.44     0  01:38        1.92
  YS02006558           JUNCTION     0.77     2.20     8.46     0  01:38        1.97
  YS02006561           JUNCTION     0.19     1.33     7.99     0  01:38        0.87
  YS02163301           JUNCTION     0.59     1.97     8.49     0  01:39        1.97
  YS02163601           JUNCTION     0.67     2.08     8.48     0  01:38        2.08
  YS02164001           JUNCTION     0.60     2.10     8.56     0  01:54        2.10
  CC-1                 OUTFALL      0.00     0.00     0.00     0  00:00        0.00
  CC-2                 OUTFALL      0.00     0.00     0.00     0  00:00        0.00
  JK-1                 OUTFALL      0.00     0.00     0.00     0  00:00        0.00
  JK-2                 OUTFALL      0.00     0.00     0.00     0  00:00        0.00
  WSC                  OUTFALL      0.23     0.35     1.02     0  03:05        0.35
  CC-storage           STORAGE      0.81     1.52     7.02     0  02:05        1.52
  JK-storage           STORAGE      2.56     4.23     5.03     0  01:50        4.18
  XR-storage           STORAGE      7.80     9.26     7.26     0  08:00        9.26
  
  
  *******************
  Node Inflow Summary
  *******************
  
  -------------------------------------------------------------------------------------------------
                                  Maximum  Maximum                  Lateral       Total        Flow
                                  Lateral    Total  Time of Max      Inflow      Inflow     Balance
                                   Inflow   Inflow   Occurrence      Volume      Volume       Error
  Node                 Type           LPS      LPS  days hr:min    10^6 ltr    10^6 ltr     Percent
  -------------------------------------------------------------------------------------------------
  WS02001211           JUNCTION      7.35   200.52     0  03:17       0.212        5.44       0.611
  WS02001212           JUNCTION      0.00   203.05     0  03:18           0        5.41       0.290
  WS02001213           JUNCTION      0.00   205.38     0  03:17           0        5.39       0.330
  WS02003059           JUNCTION      0.00   210.49     0  03:17           0        5.38       0.591
  WS02003060           JUNCTION     16.53   750.41     0  03:04       0.476        9.02       0.155
  WS02003066           JUNCTION      0.00   536.21     0  03:03           0        3.19       0.038
  WS02003067           JUNCTION      0.00   536.21     0  03:03           0         3.2       0.125
  WS02003069           JUNCTION      0.32   750.72     0  03:04     0.00922        9.01       0.164
  WS02003072           JUNCTION      0.00   750.72     0  03:05           0        8.99       0.225
  WS02003073           JUNCTION      1.82   752.54     0  03:05      0.0524        9.02       0.231
  WS02004138           JUNCTION      0.00   380.00     0  00:00           0        5.25       0.053
  WS02004139           JUNCTION      0.32   191.16     0  00:29     0.00924        5.26       0.509
  WS02004401           JUNCTION      0.00   537.01     0  02:38           0        3.29       0.299
  WS02004402           JUNCTION      0.00   536.91     0  02:38           0        3.28       0.306
  WS02004403           JUNCTION      0.00   536.46     0  02:38           0        3.27       0.300
  WS02004404           JUNCTION      0.16   536.70     0  02:38     0.00467        3.27       0.262
  WS02004405           JUNCTION      0.04   536.58     0  02:39      0.0011        3.26       0.364
  WS02004406           JUNCTION      0.00   536.63     0  02:40           0        3.25       0.625
  WS02004407           JUNCTION      0.00   536.38     0  02:39           0        3.23       0.028
  WS02004409           JUNCTION      0.00   536.31     0  02:39           0        3.23       0.070
  WS02004410           JUNCTION      0.00   536.25     0  03:01           0        3.23       0.121
  WS02004411           JUNCTION      0.00   536.23     0  03:01           0        3.22       0.158
  WS02004412           JUNCTION      0.00   536.23     0  03:01           0        3.22       0.217
  WS02004413           JUNCTION      0.00   536.22     0  03:00           0        3.21       0.390
  WS02006109           JUNCTION      1.23   564.41     0  02:07      0.0354        3.34       0.248
  WS02006110           JUNCTION      0.00   564.33     0  02:07           0        3.33       0.184
  WS02006111           JUNCTION      0.00   560.72     0  02:09           0        3.32       0.023
  WS02006112           JUNCTION      0.00   544.29     0  02:19           0        3.32       0.530
  WS02006113           JUNCTION      0.00   573.33     0  01:46           0        3.32       0.045
  WS02006115           JUNCTION      0.00   552.08     0  02:09           0         3.3       0.185
  WS02006116           JUNCTION      0.00   537.80     0  02:19           0         3.3       0.058
  WS02006228           JUNCTION      0.00   563.41     0  02:07           0         3.3       0.109
  WS02006229           JUNCTION      0.00   563.11     0  02:07           0        3.31       0.126
  WS02006230           JUNCTION     10.28   603.44     0  01:46       0.296        3.31       0.144
  WS02006231           JUNCTION      0.00   589.72     0  02:07           0        3.02      -0.041
  WS02006232           JUNCTION      0.00   587.89     0  02:07           0        3.02       0.223
  WS02006234           JUNCTION      0.00   578.91     0  01:45           0        3.02      -0.192
  WS02006235           JUNCTION      0.00   578.50     0  01:45           0        3.06       0.172
  WS02006238           JUNCTION      0.00   427.62     0  02:10           0        2.11      -0.154
  WS02006239           JUNCTION      0.00   425.09     0  02:10           0        2.09      -0.164
  WS02006240           JUNCTION      0.00   421.37     0  02:15           0        2.07      -0.076
  WS02006242           JUNCTION      0.00   421.46     0  02:10           0        2.05      -0.139
  WS02006243           JUNCTION      0.00   421.53     0  02:10           0        2.04      -0.231
  WS02006245           JUNCTION      0.00   422.07     0  02:10           0        2.05       0.517
  WS02006247           JUNCTION      0.00   421.83     0  02:10           0        2.05      -0.099
  WS02006248           JUNCTION      0.00   421.71     0  02:10           0        2.04      -0.302
  WS02006249           JUNCTION      0.00   476.06     0  03:10           0        2.31       0.819
  WS02006251           JUNCTION      0.08   404.93     0  02:26     0.00222        2.31       0.021
  WS02006252           JUNCTION      0.00   400.00     0  00:00           0         2.3      -0.395
  WS02006256           JUNCTION      0.00   300.00     0  00:00           0        1.42      -0.857
  WSF200               JUNCTION      0.00   536.21     0  03:04           0        3.19       0.014
  YS02001580           JUNCTION      0.00   269.35     0  01:36           0     0.00478       0.887
  YS02001583           JUNCTION      0.00   283.96     0  01:36           0      0.0146     -13.950
  YS02001586           JUNCTION    491.84   491.96     0  01:42        1.23        1.24       0.151
  YS02001590           JUNCTION      0.00   318.69     0  01:47           0         1.1      -0.045
  YS02001593           JUNCTION      0.00   318.25     0  01:47           0         1.1       0.011
  YS02001596           JUNCTION      0.00   317.97     0  01:52           0         1.1       0.008
  YS02001600           JUNCTION      0.00   318.42     0  01:54           0         1.1      -0.004
  YS02001601           JUNCTION    898.95  1216.36     0  01:40        1.64        2.74       0.020
  YS02001602           JUNCTION      0.00   588.85     0  01:36           0        1.95       0.016
  YS02001605           JUNCTION      0.00   588.69     0  01:36           0        1.87       0.008
  YS02001607           JUNCTION      0.00   588.57     0  01:36           0        1.87       0.073
  YS02001610           JUNCTION      0.00   558.17     0  01:36           0        1.87       0.113
  YS02001613           JUNCTION      0.00   529.43     0  01:36           0        1.59       0.094
  YS02001616           JUNCTION      0.00   474.68     0  02:06           0        1.59       0.013
  YS02001619           JUNCTION    847.40   908.96     0  01:36        1.89        3.48      -0.005
  YS02001622           JUNCTION      0.00   857.54     0  01:39           0        3.48       0.003
  YS02001625           JUNCTION      0.00   936.89     0  01:41           0        3.48       0.250
  YS02001629           JUNCTION      0.00   827.17     0  02:01           0        3.01       0.016
  YS02001633           JUNCTION    685.63  1361.70     0  01:37        1.24        4.23       0.078
  YS02001641           JUNCTION      0.00  1359.88     0  01:37           0        4.22       0.066
  YS02001644           JUNCTION    591.42  1878.50     0  01:37        1.02        5.23       0.058
  YS02001647           JUNCTION      0.00  1877.88     0  01:37           0         5.2       0.005
  YS02001649           JUNCTION      0.00  2210.36     0  01:38           0        6.18       0.008
  YS02001652           JUNCTION      0.00   710.32     0  01:40           0       0.974      -0.181
  YS02001655           JUNCTION      0.15   833.72     0  01:38     0.00443       0.974      -0.081
  YS02001658           JUNCTION      0.00   760.77     0  01:39           0        0.97      -0.057
  YS02001661           JUNCTION      0.00   815.92     0  01:40           0        0.97       0.037
  YS02001664           JUNCTION    594.14   594.14     0  01:39        0.97        0.97      -0.014
  YS02001745           JUNCTION    377.76   502.81     0  01:39       0.556       0.557       0.321
  YS02001748           JUNCTION      0.04   672.61     0  01:38      0.0013       0.561      -0.497
  YS02001751           JUNCTION      0.01   499.52     0  01:40    0.000317       0.572       0.122
  YS02001754           JUNCTION      0.26   499.98     0  01:40     0.00749       0.585      -0.344
  YS02001757           JUNCTION      0.00  3422.77     0  01:40           0        8.78       0.055
  YS02001759           JUNCTION    545.06  1307.27     0  01:38       0.812        2.02      -0.017
  YS02001762           JUNCTION      0.00   760.33     0  01:38           0        1.21      -0.020
  YS02001765           JUNCTION      0.00   757.99     0  01:38           0        1.21      -0.014
  YS02001767           JUNCTION      0.54   756.03     0  01:38      0.0154         1.2       0.011
  YS02001770           JUNCTION    745.82   750.67     0  01:38         1.2        1.24      -0.055
  YS02001774           JUNCTION      0.00   596.96     0  01:38           0      0.0701       1.385
  YS02001779           JUNCTION      0.01   600.21     0  01:38    0.000144      0.0262      -2.499
  YS02001783           JUNCTION      0.00  1154.58     0  01:39           0        3.22       0.006
  YS02001784           JUNCTION      1.06  1155.74     0  01:39      0.0305        3.25       0.014
  YS02001786           JUNCTION      0.06  1155.80     0  01:38     0.00162        3.25       0.022
  YS02001788           JUNCTION      0.07  1157.77     0  01:38     0.00204        3.25       0.009
  YS02001790           JUNCTION      0.15  1165.53     0  01:39     0.00446        3.25       0.025
  YS02001791           JUNCTION      0.00  1278.15     0  01:43           0        3.25      -0.021
  YS02001793           JUNCTION      0.00  1225.65     0  01:49           0        3.25       0.008
  YS02001882           JUNCTION      0.00   115.32     0  01:37           0      0.0122       4.024
  YS02001884           JUNCTION      0.00   155.50     0  01:37           0      0.0477       5.186
  YS02001887           JUNCTION    602.16   603.66     0  01:38       0.843       0.876       0.504
  YS02001890           JUNCTION      0.00   604.06     0  01:38           0       0.836       0.611
  YS02001895           JUNCTION      0.00   601.65     0  01:37           0       0.824       0.181
  YS02001898           JUNCTION      0.00   601.80     0  01:37           0       0.822       0.016
  YS02001901           JUNCTION      0.00   602.56     0  01:37           0       0.825       0.414
  YS02001904           JUNCTION      0.00   603.60     0  01:37           0       0.832       0.322
  YS02001907           JUNCTION      0.00  1597.99     0  01:39           0        2.52       0.691
  YS02001910           JUNCTION      0.00  1063.31     0  01:39           0         1.7       0.411
  YS02001915           JUNCTION    604.81  1063.41     0  01:39        1.03        1.76       0.085
  YS02001918           JUNCTION      0.00   773.89     0  01:37           0       0.755       0.020
  YS02001920           JUNCTION      2.87   707.18     0  01:38      0.0827       0.727       0.159
  YS02001923           JUNCTION      0.04   922.10     0  01:38     0.00109       0.626      -0.158
  YS02001926           JUNCTION      0.05  1206.39     0  01:38      0.0015       0.606      -0.019
  YS02001929           JUNCTION    304.04   869.57     0  01:38       0.582       0.588      -0.074
  YS02006553           JUNCTION      0.00   788.45     0  01:52           0         2.1       0.564
  YS02006556           JUNCTION      0.00   788.14     0  01:52           0        2.11       0.388
  YS02006558           JUNCTION    744.34  1168.69     0  01:37        1.17        3.25       0.108
  YS02006561           JUNCTION      0.00  1170.98     0  01:37           0        3.22      -0.001
  YS02163301           JUNCTION      0.00   828.14     0  02:01           0           3       0.051
  YS02163601           JUNCTION      0.11  1361.44     0  01:37     0.00317        4.22       0.113
  YS02164001           JUNCTION      0.00  1360.92     0  01:37           0        4.22       0.055
  CC-1                 OUTFALL       0.00   683.00     0  00:00           0        3.72       0.000
  CC-2                 OUTFALL       0.00   683.00     0  00:00           0        3.49       0.000
  JK-1                 OUTFALL       0.00  1000.00     0  00:00           0        1.75       0.000
  JK-2                 OUTFALL       0.00  1000.00     0  00:00           0      0.0484       0.000
  WSC                  OUTFALL       0.00   752.54     0  03:05           0           9       0.000
  CC-storage           STORAGE       0.00  3423.02     0  01:40           0          11      -0.255
  JK-storage           STORAGE       0.00  1201.07     0  01:46           0         3.4       0.174
  XR-storage           STORAGE     200.00   200.00     0  00:00        5.76        6.36       0.001
  
  
  **********************
  Node Surcharge Summary
  **********************
  
  Surcharging occurs when water rises above the top of the highest conduit.
  ---------------------------------------------------------------------
                                               Max. Height   Min. Depth
                                   Hours       Above Crown    Below Rim
  Node                 Type      Surcharged         Meters       Meters
  ---------------------------------------------------------------------
  WS02006109           JUNCTION        1.38          0.463        1.357
  WS02006110           JUNCTION        0.87          0.466        1.384
  WS02006112           JUNCTION        0.90          0.083        1.597
  WS02006228           JUNCTION        1.37          0.685        1.515
  WS02006229           JUNCTION        1.38          0.786        1.664
  WS02006230           JUNCTION        0.89          0.890        0.680
  WS02006231           JUNCTION        1.00          0.765        0.765
  WS02006232           JUNCTION        1.40          0.856        0.624
  WS02006234           JUNCTION        1.24          1.035        0.205
  WS02006235           JUNCTION        1.35          1.290        0.000
  WS02006238           JUNCTION        1.38          1.412        0.018
  WS02006239           JUNCTION        1.36          1.290        0.000
  WS02006240           JUNCTION        1.37          1.173        0.217
  WS02006242           JUNCTION        1.38          0.820        0.000
  WS02006243           JUNCTION        1.36          0.730        0.040
  WS02006245           JUNCTION        1.35          0.651        0.199
  WS02006247           JUNCTION        1.35          0.585        0.175
  WS02006248           JUNCTION        1.34          0.380        0.000
  WS02006249           JUNCTION        1.34          0.390        0.000
  WS02006251           JUNCTION        1.05          0.421        0.759
  WS02006252           JUNCTION        1.57          1.100        0.000
  WS02006256           JUNCTION        3.48          2.050        0.000
  YS02001580           JUNCTION        0.44          0.450        0.000
  YS02001583           JUNCTION        0.45          0.500        0.000
  YS02001586           JUNCTION        0.57          0.510        0.000
  YS02001590           JUNCTION        0.64          0.750        0.000
  YS02001593           JUNCTION        0.64          0.840        0.000
  YS02001596           JUNCTION        0.73          1.070        0.000
  YS02001600           JUNCTION        0.86          1.190        0.000
  YS02001601           JUNCTION        1.24          1.440        0.000
  YS02001602           JUNCTION        1.10          1.270        0.000
  YS02001605           JUNCTION        1.04          1.180        0.000
  YS02001607           JUNCTION        0.61          0.680        0.000
  YS02001610           JUNCTION        0.63          0.680        0.000
  YS02001613           JUNCTION        0.60          0.700        0.000
  YS02001616           JUNCTION        0.56          0.610        0.000
  YS02001619           JUNCTION        0.55          0.610        0.000
  YS02001622           JUNCTION        0.55          0.577        0.043
  YS02001625           JUNCTION        0.70          0.780        0.000
  YS02001629           JUNCTION        0.50          0.470        0.000
  YS02001633           JUNCTION        0.73          1.060        0.000
  YS02001641           JUNCTION        0.67          1.100        0.000
  YS02001644           JUNCTION        0.65          0.920        0.000
  YS02001647           JUNCTION        0.47          0.833        0.067
  YS02001649           JUNCTION        0.58          1.050        0.000
  YS02001652           JUNCTION        0.39          1.130        0.000
  YS02001655           JUNCTION        0.23          1.200        0.000
  YS02001658           JUNCTION        0.06          1.300        0.000
  YS02001748           JUNCTION        0.01          1.190        0.000
  YS02001751           JUNCTION        0.11          1.200        0.000
  YS02001754           JUNCTION        0.28          1.150        0.000
  YS02001757           JUNCTION        0.63          1.118        0.092
  YS02001759           JUNCTION        0.53          1.101        0.109
  YS02001762           JUNCTION        0.50          1.150        0.000
  YS02001765           JUNCTION        0.45          1.100        0.000
  YS02001767           JUNCTION        0.42          1.030        0.000
  YS02001770           JUNCTION        0.39          0.920        0.000
  YS02001774           JUNCTION        0.48          1.050        0.000
  YS02001779           JUNCTION        0.27          0.680        0.000
  YS02001783           JUNCTION        0.39          0.713        0.887
  YS02001784           JUNCTION        0.37          0.478        1.012
  YS02001786           JUNCTION        0.28          0.704        0.726
  YS02001882           JUNCTION        0.34          0.830        0.000
  YS02001884           JUNCTION        0.35          0.870        0.000
  YS02001887           JUNCTION        0.38          0.862        0.088
  YS02001890           JUNCTION        0.39          0.760        0.000
  YS02001895           JUNCTION        0.33          0.691        0.059
  YS02001898           JUNCTION        0.33          0.709        0.031
  YS02001901           JUNCTION        0.37          0.709        0.161
  YS02001904           JUNCTION        0.36          0.669        0.181
  YS02001907           JUNCTION        0.55          0.950        0.000
  YS02001910           JUNCTION        0.41          1.077        0.023
  YS02001915           JUNCTION        0.34          1.000        0.000
  YS02001918           JUNCTION        0.26          0.810        0.000
  YS02001920           JUNCTION        0.28          1.140        0.000
  YS02001923           JUNCTION        0.01          0.820        0.000
  YS02001926           JUNCTION        0.02          0.900        0.000
  YS02001929           JUNCTION        0.01          0.780        0.000
  YS02006553           JUNCTION        0.56          1.052        0.138
  YS02006556           JUNCTION        0.48          1.089        0.261
  YS02006558           JUNCTION        0.47          1.095        0.305
  YS02006561           JUNCTION        0.23          0.528        0.622
  YS02163301           JUNCTION        0.71          0.969        0.061
  YS02163601           JUNCTION        0.75          1.080        0.000
  YS02164001           JUNCTION        0.68          1.100        0.000
  
  
  *********************
  Node Flooding Summary
  *********************
  
  Flooding refers to all water that overflows a node, whether it ponds or not.
  --------------------------------------------------------------------------
                                                             Total   Maximum
                                 Maximum   Time of Max       Flood    Ponded
                        Hours       Rate    Occurrence      Volume     Depth
  Node                 Flooded       LPS   days hr:min    10^6 ltr    Meters
  --------------------------------------------------------------------------
  WS02006235              0.01     21.66      0  02:16       0.000     0.000
  WS02006239              0.01      6.02      0  02:16       0.000     0.000
  WS02006242              0.01     25.42      0  02:16       0.000     0.000
  WS02006248              0.01     21.57      0  01:55       0.000     0.000
  WS02006249              1.03     84.67      0  01:47       0.250     0.000
  WS02006252              0.01    245.63      0  00:00       0.000     0.000
  WS02006256              1.31    293.19      0  00:00       0.461     0.000
  YS02001580              0.01    201.01      0  01:36       0.001     0.000
  YS02001583              0.01    190.74      0  01:36       0.001     0.000
  YS02001586              0.33    183.20      0  01:36       0.127     0.000
  YS02001590              0.01     68.75      0  01:35       0.000     0.000
  YS02001593              0.01     75.11      0  01:35       0.000     0.000
  YS02001596              0.01     24.02      0  01:35       0.000     0.000
  YS02001600              0.01     20.24      0  01:35       0.000     0.000
  YS02001601              0.50    818.55      0  01:40       0.787     0.000
  YS02001602              0.40     61.97      0  01:48       0.080     0.000
  YS02001605              0.01     15.98      0  01:36       0.000     0.000
  YS02001607              0.01    161.82      0  01:36       0.001     0.000
  YS02001610              0.35    350.81      0  01:43       0.281     0.000
  YS02001613              0.01     34.03      0  01:36       0.000     0.000
  YS02001616              0.01    177.85      0  01:36       0.001     0.000
  YS02001619              0.01     98.09      0  01:36       0.000     0.000
  YS02001625              0.32    936.68      0  01:41       0.477     0.000
  YS02001629              0.06    204.93      0  01:36       0.010     0.000
  YS02001641              0.01      7.20      0  01:54       0.000     0.000
  YS02001644              0.04    185.57      0  01:40       0.015     0.000
  YS02001649              0.01     40.43      0  01:38       0.000     0.000
  YS02001652              0.01     44.56      0  01:39       0.000     0.000
  YS02001655              0.01    626.95      0  01:38       0.001     0.000
  YS02001658              0.01    382.15      0  01:39       0.000     0.000
  YS02001748              0.01    353.75      0  01:39       0.000     0.000
  YS02001751              0.01    277.25      0  01:39       0.000     0.000
  YS02001754              0.01    322.81      0  01:38       0.000     0.000
  YS02001762              0.01      4.52      0  01:54       0.000     0.000
  YS02001765              0.01     36.34      0  01:38       0.000     0.000
  YS02001767              0.01    122.19      0  01:38       0.000     0.000
  YS02001770              0.01    251.90      0  01:38       0.000     0.000
  YS02001774              0.01    172.93      0  01:38       0.000     0.000
  YS02001779              0.01    569.37      0  01:38       0.008     0.000
  YS02001882              0.01     37.80      0  01:37       0.000     0.000
  YS02001884              0.01     57.38      0  01:37       0.000     0.000
  YS02001890              0.05    194.66      0  01:37       0.007     0.000
  YS02001907              0.21   1181.64      0  01:39       0.408     0.000
  YS02001915              0.01    254.68      0  01:37       0.000     0.000
  YS02001918              0.01    317.21      0  01:37       0.003     0.000
  YS02001920              0.01     56.52      0  01:38       0.000     0.000
  YS02001923              0.01    364.27      0  01:38       0.002     0.000
  YS02001926              0.01    846.46      0  01:38       0.004     0.000
  YS02001929              0.01    717.91      0  01:38       0.002     0.000
  YS02163601              0.01      2.81      0  01:38       0.000     0.000
  YS02164001              0.01      6.95      0  01:54       0.000     0.000
  
  
  **********************
  Storage Volume Summary
  **********************
  
  ------------------------------------------------------------------------------------------------
                         Average    Avg   Evap  Exfil     Maximum    Max    Time of Max    Maximum
                          Volume   Pcnt   Pcnt   Pcnt      Volume   Pcnt     Occurrence    Outflow
  Storage Unit           1000 m³   Full   Loss   Loss     1000 m³   Full    days hr:min        LPS
  ------------------------------------------------------------------------------------------------
  CC-storage               2.266   35.4    0.0    0.0       4.233   66.0       0  02:05    1783.53
  JK-storage               0.129   44.1    0.0    0.0       0.213   72.9       0  01:50    2300.00
  XR-storage               0.936   65.0    0.0    0.0       1.111   77.2       0  08:00     380.00
  
  
  ***********************
  Outfall Loading Summary
  ***********************
  
  -----------------------------------------------------------
                         Flow       Avg       Max       Total
                         Freq      Flow      Flow      Volume
  Outfall Node           Pcnt       LPS       LPS    10^6 ltr
  -----------------------------------------------------------
  CC-1                  35.66    683.00    683.00       3.722
  CC-2                  33.09    683.00    683.00       3.489
  JK-1                  14.97   1000.00   1000.00       1.749
  JK-2                   0.27   1000.00   1000.00       0.048
  WSC                   99.92    385.32    752.54       9.003
  -----------------------------------------------------------
  System                36.78   3751.32   3366.23      18.012
  
  
  ********************
  Link Flow Summary
  ********************
  
  -----------------------------------------------------------------------------
                                 Maximum  Time of Max   Maximum    Max/    Max/
                                  |Flow|   Occurrence   |Veloc|    Full    Full
  Link                 Type          LPS  days hr:min     m/sec    Flow   Depth
  -----------------------------------------------------------------------------
  1                    CONDUIT    752.54     0  03:05      3.08    0.26    0.35
  WS02001211WS02001212 CONDUIT    203.05     0  03:18      0.54    0.16    0.51
  WS02001212WS02001213 CONDUIT    205.38     0  03:17      1.04    0.32    0.36
  WS02001213WS02003059 CONDUIT    210.49     0  03:17      0.47    0.35    0.67
  WS02003059WS02003060 CONDUIT    217.41     0  03:16      0.67    0.14    0.58
  WS02003060WS02003069 CONDUIT    750.40     0  03:04      1.77    0.29    0.40
  WS02003066WSF200     CONDUIT    536.21     0  03:04      2.73    0.09    0.23
  WS02003067WS02003066 CONDUIT    536.21     0  03:03      1.21    0.17    0.42
  WS02003069WS02003072 CONDUIT    750.72     0  03:05      1.51    0.36    0.45
  WS02003072WS02003073 CONDUIT    750.72     0  03:05      1.60    1.62    0.43
  WS02004138WS02004139 CONDUIT    190.84     0  00:29      2.17    0.04    0.33
  WS02004139WS02001211 CONDUIT    193.17     0  03:17      0.54    0.24    0.47
  WS02004401WS02004402 CONDUIT    536.91     0  02:38      0.97    0.64    0.86
  WS02004402WS02004403 CONDUIT    536.46     0  02:38      0.97    0.77    0.88
  WS02004403WS02004404 CONDUIT    536.53     0  02:38      0.92    0.39    0.93
  WS02004404WS02004405 CONDUIT    536.54     0  02:39      1.08    5.26    0.96
  WS02004405WS02004406 CONDUIT    536.63     0  02:40      0.99    1.06    0.96
  WS02004406WS02004407 CONDUIT    536.38     0  02:39      1.04    0.24    0.63
  WS02004407WS02004409 CONDUIT    536.31     0  02:39      1.55    0.19    0.48
  WS02004409WS02004410 CONDUIT    536.25     0  03:01      1.05    0.69    0.67
  WS02004410WS02004411 CONDUIT    536.23     0  03:01      1.02    0.73    0.69
  WS02004411WS02004412 CONDUIT    536.23     0  03:01      0.99    0.76    0.69
  WS02004412WS02004413 CONDUIT    536.22     0  03:00      0.82    0.36    0.78
  WS02004413WS02003067 CONDUIT    536.21     0  03:03      1.11    0.23    0.59
  WS02006109WS02006110 CONDUIT    564.33     0  02:07      1.12    1.09    1.00
  WS02006110WS02006113 CONDUIT    573.33     0  01:46      1.38    0.52    0.79
  WS02006111WS02006112 CONDUIT    544.29     0  02:19      1.82    0.26    0.67
  WS02006112WS02006115 CONDUIT    552.08     0  02:09      0.89    0.33    0.87
  WS02006113WS02006111 CONDUIT    560.72     0  02:09      2.46    0.67    0.46
  WS02006115WS02006116 CONDUIT    537.80     0  02:19      1.14    0.69    0.76
  WS02006116WS02004401 CONDUIT    537.01     0  02:38      0.99    0.74    0.84
  WS02006228WS02006109 CONDUIT    563.18     0  02:07      1.12    2.46    1.00
  WS02006229WS02006228 CONDUIT    563.41     0  02:07      1.15    1.87    1.00
  WS02006230WS02006229 CONDUIT    563.11     0  02:07      1.46   12.53    1.00
  WS02006231WS02006230 CONDUIT    593.16     0  01:46      1.63    9.00    1.00
  WS02006232WS02006231 CONDUIT    589.72     0  02:07      1.57    1.24    1.00
  WS02006234WS02006232 CONDUIT    587.89     0  02:07      1.53    1.19    1.00
  WS02006235WS02006234 CONDUIT    578.91     0  01:45      1.50    6.11    1.00
  WS02006238WS02006235 CONDUIT    427.37     0  02:10      1.56    0.95    1.00
  WS02006239WS02006238 CONDUIT    427.62     0  02:10      1.11    1.37    1.00
  WS02006240WS02006239 CONDUIT    425.09     0  02:10      1.24    1.34    1.00
  WS02006242WS02006240 CONDUIT    421.37     0  02:15      1.12    1.67    1.00
  WS02006243WS02006242 CONDUIT    421.46     0  02:10      1.39    0.90    1.00
  WS02006245WS02006243 CONDUIT    421.53     0  02:10      1.45    1.25    1.00
  WS02006247WS02006245 CONDUIT    422.07     0  02:10      1.44    3.35    1.00
  WS02006248WS02006247 CONDUIT    421.83     0  02:10      1.45    0.92    1.00
  WS02006249WS02006248 CONDUIT    421.71     0  02:10      1.38    2.31    1.00
  WS02006251WS02006249 CONDUIT    476.06     0  03:10      1.99    1.37    1.00
  WS02006252WS02006251 CONDUIT    404.85     0  02:26     25.11    1.49    1.00
  WS02006256WS02006235 CONDUIT    289.22     0  01:38      4.23    3.06    1.00
  WSF200WS02003060     CONDUIT    536.21     0  03:04      1.76    0.12    0.32
  YS02001580YS02001583 CONDUIT    269.35     0  01:36      1.11    1.04    1.00
  YS02001583YS02001586 CONDUIT    250.81     0  01:36      1.13    0.38    1.00
  YS02001586YS02001590 CONDUIT    318.69     0  01:47      1.33    0.56    1.00
  YS02001590YS02001593 CONDUIT    318.25     0  01:47      1.13    2.00    1.00
  YS02001593YS02001596 CONDUIT    317.97     0  01:52      1.74    0.50    1.00
  YS02001596YS02001600 CONDUIT    318.42     0  01:54      1.19    0.62    1.00
  YS02001600YS02001601 CONDUIT    318.77     0  01:54      1.13    0.55    1.00
  YS02001601YS02001602 CONDUIT    588.85     0  01:36      2.08    2.13    1.00
  YS02001602YS02001605 CONDUIT    588.69     0  01:36      2.08   12.46    1.00
  YS02001605YS02001607 CONDUIT    588.57     0  01:36      2.08    3.23    1.00
  YS02001607YS02001610 CONDUIT    558.17     0  01:36      0.75    0.53    1.00
  YS02001610YS02001613 CONDUIT    529.43     0  01:36      0.70    0.61    1.00
  YS02001613YS02001616 CONDUIT    474.68     0  02:06      0.68    0.41    1.00
  YS02001616YS02001619 CONDUIT    474.75     0  02:06      0.65    0.82    1.00
  YS02001619YS02001622 CONDUIT    857.54     0  01:39      1.37    1.26    1.00
  YS02001622YS02001625 CONDUIT    857.17     0  01:39      1.09    0.46    1.00
  YS02001625YS02001629 CONDUIT    827.17     0  02:01      1.05    0.39    1.00
  YS02001629YS02163301 CONDUIT    828.14     0  02:01      1.05    1.02    1.00
  YS02001633YS02163601 CONDUIT   1361.33     0  01:37      1.73    1.43    1.00
  YS02001641YS02001644 CONDUIT   1359.04     0  01:37      1.73    4.39    1.00
  YS02001644YS02001647 CONDUIT   1877.88     0  01:37      2.39    1.10    1.00
  YS02001647YS02001649 CONDUIT   1896.88     0  01:37      2.42    1.00    1.00
  YS02001649YS02001757 CONDUIT   2210.33     0  01:38      2.81    1.34    1.00
  YS02001652YS02001649 CONDUIT    712.77     0  01:40      0.91    0.35    1.00
  YS02001655YS02001652 CONDUIT    710.32     0  01:40      1.64    0.34    1.00
  YS02001658YS02001655 CONDUIT    833.57     0  01:38      2.13    0.35    1.00
  YS02001661YS02001658 CONDUIT    760.77     0  01:39      2.47    0.30    0.98
  YS02001664YS02001661 CONDUIT    815.92     0  01:40      2.44    0.26    0.71
  YS02001745YS02001748 CONDUIT    651.35     0  01:39      2.36    0.25    0.88
  YS02001748YS02001751 CONDUIT    499.51     0  01:40      1.94    0.25    1.00
  YS02001751YS02001754 CONDUIT    499.72     0  01:40      1.65    0.24    1.00
  YS02001754YS02001757 CONDUIT    500.08     0  01:40      0.64    0.20    1.00
  YS02001757CaochengTiaoxuchi CONDUIT   3423.02     0  01:40      4.37    1.48    1.00
  YS02001759YS02001757 CONDUIT   1308.63     0  01:38      1.67    0.93    1.00
  YS02001762YS02001759 CONDUIT    762.43     0  01:38      0.97    0.88    1.00
  YS02001765YS02001762 CONDUIT    760.33     0  01:38      0.97    0.71    1.00
  YS02001767YS02001765 CONDUIT    757.99     0  01:38      0.97    0.95    1.00
  YS02001770YS02001767 CONDUIT    755.50     0  01:38      0.99    2.99    1.00
  YS02001774YS02001770 CONDUIT    596.96     0  01:38      0.76    0.38    1.00
  YS02001779YS02001774 CONDUIT    600.21     0  01:38      0.77    0.30    1.00
  YS02001783YS02001784 CONDUIT   1154.68     0  01:39      2.30    1.59    1.00
  YS02001784YS02001785 CONDUIT   1155.74     0  01:38      2.30    2.69    1.00
  YS02001786YS02001788 CONDUIT   1157.70     0  01:38      2.47    2.23    0.89
  YS02001788YS02001790 CONDUIT   1165.38     0  01:39      2.70    0.86    0.83
  YS02001790YS02001791 CONDUIT   1278.15     0  01:43      3.42    1.39    0.70
  YS02001791YS02001793 CONDUIT   1225.65     0  01:49      6.50    0.53    0.44
  YS02001793JiankangQianchi CONDUIT   1201.07     0  01:46      2.36    0.10    0.65
  YS02001882YS02001884 CONDUIT    115.32     0  01:37      0.15    0.13    1.00
  YS02001884YS02001887 CONDUIT    155.50     0  01:37      0.20    0.21    1.00
  YS02001887YS02001890 CONDUIT    604.06     0  01:38      0.77    1.03    1.00
  YS02001890YS02001895 CONDUIT    601.65     0  01:37      0.77    0.28    1.00
  YS02001895YS02001898 CONDUIT    601.80     0  01:37      0.77    1.04    1.00
  YS02001898YS02001901 CONDUIT    602.56     0  01:37      0.77    0.39    1.00
  YS02001901YS02001904 CONDUIT    603.60     0  01:37      0.77    0.94    1.00
  YS02001904YS02001907 CONDUIT    605.13     0  01:37      0.77    0.21    1.00
  YS02001907YS02006553 CONDUIT    788.45     0  01:52      0.88    0.93    1.00
  YS02001910YS02001907 CONDUIT   1063.49     0  01:39      1.35    0.60    1.00
  YS02001915YS02001910 CONDUIT   1063.31     0  01:39      1.35    0.53    1.00
  YS02001918YS02001915 CONDUIT    773.89     0  01:37      0.99    0.43    1.00
  YS02001920YS02001918 CONDUIT    704.31     0  01:38      0.90    0.68    1.00
  YS02001923YS02001920 CONDUIT    716.04     0  01:38      0.94    0.32    1.00
  YS02001926YS02001923 CONDUIT    970.65     0  01:38      1.39    1.39    1.00
  YS02001929YS02001926 CONDUIT    588.07     0  01:38      1.25    0.28    1.00
  YS02006553YS02006556 CONDUIT    788.14     0  01:52      1.00    0.67    1.00
  YS02006556YS02006558 CONDUIT    788.93     0  01:52      1.00    0.62    1.00
  YS02006558YS02006561 CONDUIT   1170.98     0  01:37      4.19    2.59    1.00
  YS02006561YS02001783 CONDUIT   1154.58     0  01:39      2.30    0.60    1.00
  YS02163301YS02001633 CONDUIT    830.71     0  01:59      1.06    0.78    1.00
  YS02163601YS02164001 CONDUIT   1360.92     0  01:37      1.73    1.21    1.00
  YS02164001YS02001641 CONDUIT   1359.88     0  01:37      1.73    1.86    1.00
  CC-R1                PUMP       683.00     0  00:00              1.00
  CC-R2                PUMP       683.00     0  00:00              1.00
  CC-S1                PUMP       200.00     0  00:00              1.00
  CC-S2                PUMP       200.00     0  00:00              1.00
  JK-R1                PUMP      1000.00     0  00:00              1.00
  JK-R2                PUMP      1000.00     0  00:00              1.00
  JK-S                 PUMP       300.00     0  00:00              1.00
  XR-1                 PUMP        95.00     0  00:00              1.00
  XR-2                 PUMP        95.00     0  00:00              1.00
  XR-3                 PUMP        95.00     0  00:00              1.00
  XR-4                 PUMP        95.00     0  00:00              1.00
  
  
  ***************************
  Flow Classification Summary
  ***************************
  
  -------------------------------------------------------------------------------------
                      Adjusted    ---------- Fraction of Time in Flow Class ---------- 
                       /Actual         Up    Down  Sub   Sup   Up    Down  Norm  Inlet 
  Conduit               Length    Dry  Dry   Dry   Crit  Crit  Crit  Crit  Ltd   Ctrl  
  -------------------------------------------------------------------------------------
  1                       1.00   0.00  0.00  0.00  0.00  1.00  0.00  0.00  0.15  0.00
  WS02001211WS02001212    1.00   0.00  0.02  0.00  0.98  0.00  0.00  0.00  0.00  0.00
  WS02001212WS02001213    1.00   0.02  0.00  0.00  0.19  0.00  0.78  0.00  0.00  0.00
  WS02001213WS02003059    1.00   0.00  0.01  0.00  0.99  0.00  0.00  0.00  0.00  0.00
  WS02003059WS02003060    1.00   0.00  0.00  0.00  1.00  0.00  0.00  0.00  0.03  0.00
  WS02003060WS02003069    1.00   0.00  0.00  0.00  0.98  0.02  0.00  0.00  0.71  0.00
  WS02003066WSF200        1.00   0.13  0.00  0.00  0.00  0.87  0.00  0.00  0.74  0.00
  WS02003067WS02003066    1.00   0.10  0.02  0.00  0.88  0.00  0.00  0.00  0.00  0.00
  WS02003069WS02003072    1.00   0.00  0.00  0.00  1.00  0.00  0.00  0.00  0.78  0.00
  WS02003072WS02003073    1.00   0.00  0.00  0.00  0.00  0.00  0.00  1.00  0.00  0.00
  WS02004138WS02004139    1.00   0.00  0.00  0.00  0.97  0.01  0.00  0.02  0.98  0.00
  WS02004139WS02001211    1.00   0.00  0.00  0.00  0.99  0.00  0.00  0.00  0.00  0.00
  WS02004401WS02004402    1.00   0.02  0.00  0.00  0.98  0.00  0.00  0.00  0.00  0.00
  WS02004402WS02004403    1.00   0.02  0.00  0.00  0.97  0.00  0.00  0.00  0.00  0.00
  WS02004403WS02004404    1.00   0.00  0.03  0.00  0.97  0.00  0.00  0.00  0.00  0.00
  WS02004404WS02004405    1.00   0.00  0.00  0.00  1.00  0.00  0.00  0.00  0.01  0.00
  WS02004405WS02004406    1.00   0.00  0.00  0.00  1.00  0.00  0.00  0.00  0.00  0.00
  WS02004406WS02004407    1.00   0.00  0.05  0.00  0.95  0.00  0.00  0.00  0.00  0.00
  WS02004407WS02004409    1.00   0.05  0.00  0.00  0.94  0.01  0.00  0.00  0.94  0.00
  WS02004409WS02004410    1.00   0.05  0.00  0.00  0.95  0.00  0.00  0.00  0.03  0.00
  WS02004410WS02004411    1.00   0.05  0.00  0.00  0.95  0.00  0.00  0.00  0.01  0.00
  WS02004411WS02004412    1.00   0.05  0.00  0.00  0.95  0.00  0.00  0.00  0.00  0.00
  WS02004412WS02004413    1.00   0.05  0.00  0.00  0.94  0.00  0.00  0.00  0.01  0.00
  WS02004413WS02003067    1.00   0.06  0.04  0.00  0.00  0.00  0.90  0.00  0.00  0.00
  WS02006109WS02006110    1.00   0.00  0.01  0.00  0.98  0.00  0.01  0.00  0.00  0.00
  WS02006110WS02006113    1.00   0.01  0.01  0.00  0.98  0.00  0.00  0.00  0.00  0.00
  WS02006111WS02006112    1.00   0.02  0.00  0.00  0.98  0.00  0.00  0.00  0.98  0.00
  WS02006112WS02006115    1.00   0.02  0.00  0.00  0.97  0.00  0.00  0.00  0.00  0.00
  WS02006113WS02006111    1.00   0.02  0.00  0.00  0.00  0.98  0.00  0.00  0.09  0.00
  WS02006115WS02006116    1.00   0.02  0.00  0.00  0.97  0.00  0.00  0.01  0.00  0.00
  WS02006116WS02004401    1.00   0.02  0.00  0.00  0.98  0.00  0.00  0.00  0.00  0.00
  WS02006228WS02006109    1.00   0.00  0.00  0.00  1.00  0.00  0.00  0.00  0.00  0.00
  WS02006229WS02006228    1.00   0.00  0.00  0.00  0.99  0.00  0.00  0.01  0.00  0.00
  WS02006230WS02006229    1.00   0.00  0.00  0.00  0.99  0.00  0.00  0.01  0.04  0.00
  WS02006231WS02006230    1.00   0.00  0.00  0.00  0.18  0.00  0.82  0.00  0.00  0.00
  WS02006232WS02006231    1.00   0.00  0.00  0.00  0.99  0.00  0.01  0.00  0.00  0.00
  WS02006234WS02006232    1.00   0.00  0.00  0.00  1.00  0.00  0.00  0.00  0.47  0.00
  WS02006235WS02006234    1.00   0.00  0.00  0.00  0.49  0.00  0.51  0.00  0.00  0.00
  WS02006238WS02006235    1.00   0.00  0.00  0.00  1.00  0.00  0.00  0.00  0.00  0.00
  WS02006239WS02006238    1.00   0.00  0.00  0.00  1.00  0.00  0.00  0.00  0.57  0.00
  WS02006240WS02006239    1.00   0.00  0.00  0.00  0.36  0.00  0.00  0.64  0.01  0.00
  WS02006242WS02006240    1.00   0.00  0.00  0.00  1.00  0.00  0.00  0.00  0.00  0.00
  WS02006243WS02006242    1.00   0.00  0.00  0.00  0.99  0.00  0.00  0.01  0.74  0.00
  WS02006245WS02006243    1.00   0.00  0.00  0.00  0.42  0.00  0.00  0.57  0.01  0.00
  WS02006247WS02006245    1.00   0.00  0.00  0.00  0.98  0.00  0.00  0.02  0.00  0.00
  WS02006248WS02006247    1.00   0.00  0.00  0.00  0.99  0.00  0.00  0.01  0.21  0.00
  WS02006249WS02006248    1.00   0.00  0.00  0.00  0.31  0.00  0.69  0.00  0.00  0.00
  WS02006251WS02006249    1.00   0.00  0.00  0.00  0.99  0.01  0.00  0.00  0.73  0.00
  WS02006252WS02006251    1.00   0.00  0.76  0.00  0.13  0.00  0.10  0.00  0.00  0.00
  WS02006256WS02006235    1.00   0.00  0.00  0.00  1.00  0.00  0.00  0.00  0.00  0.00
  WSF200WS02003060        1.00   0.00  0.13  0.00  0.71  0.17  0.00  0.00  0.68  0.00
  YS02001580YS02001583    1.00   0.20  0.63  0.00  0.17  0.00  0.00  0.00  0.72  0.00
  YS02001583YS02001586    1.00   0.50  0.27  0.00  0.23  0.00  0.00  0.00  0.72  0.00
  YS02001586YS02001590    1.00   0.13  0.00  0.00  0.37  0.04  0.00  0.46  0.32  0.00
  YS02001590YS02001593    1.00   0.13  0.01  0.00  0.09  0.00  0.77  0.00  0.00  0.00
  YS02001593YS02001596    1.00   0.13  0.00  0.00  0.11  0.01  0.00  0.75  0.02  0.00
  YS02001596YS02001600    1.00   0.14  0.00  0.00  0.18  0.02  0.00  0.66  0.06  0.00
  YS02001600YS02001601    1.00   0.13  0.01  0.00  0.86  0.00  0.00  0.00  0.62  0.00
  YS02001601YS02001602    1.00   0.13  0.01  0.00  0.87  0.00  0.00  0.00  0.00  0.00
  YS02001602YS02001605    1.00   0.14  0.00  0.00  0.86  0.00  0.00  0.00  0.00  0.00
  YS02001605YS02001607    1.00   0.14  0.00  0.00  0.86  0.00  0.00  0.00  0.00  0.00
  YS02001607YS02001610    1.00   0.13  0.01  0.00  0.86  0.00  0.00  0.00  0.01  0.00
  YS02001610YS02001613    1.00   0.13  0.00  0.00  0.87  0.00  0.00  0.00  0.00  0.00
  YS02001613YS02001616    1.00   0.13  0.00  0.00  0.87  0.00  0.00  0.00  0.00  0.00
  YS02001616YS02001619    1.00   0.13  0.00  0.00  0.87  0.00  0.00  0.00  0.00  0.00
  YS02001619YS02001622    1.00   0.13  0.00  0.00  0.87  0.00  0.00  0.00  0.36  0.00
  YS02001622YS02001625    1.00   0.13  0.00  0.00  0.87  0.00  0.00  0.00  0.04  0.00
  YS02001625YS02001629    1.00   0.13  0.05  0.00  0.13  0.00  0.69  0.00  0.00  0.00
  YS02001629YS02163301    1.00   0.15  0.01  0.00  0.84  0.00  0.00  0.00  0.00  0.00
  YS02001633YS02163601    1.00   0.00  0.01  0.00  0.99  0.00  0.00  0.00  0.15  0.00
  YS02001641YS02001644    1.00   0.00  0.01  0.00  0.99  0.00  0.00  0.00  0.00  0.00
  YS02001644YS02001647    1.00   0.00  0.17  0.00  0.83  0.00  0.00  0.00  0.00  0.00
  YS02001647YS02001649    1.00   0.00  0.17  0.00  0.55  0.28  0.00  0.00  0.60  0.00
  YS02001649YS02001757    1.00   0.00  0.00  0.00  0.71  0.29  0.00  0.00  0.58  0.00
  YS02001652YS02001649    1.00   0.00  0.00  0.00  0.97  0.03  0.00  0.00  0.75  0.00
  YS02001655YS02001652    1.00   0.00  0.00  0.00  0.15  0.02  0.00  0.83  0.06  0.00
  YS02001658YS02001655    1.00   0.00  0.14  0.00  0.65  0.20  0.00  0.00  0.72  0.00
  YS02001661YS02001658    1.00   0.14  0.00  0.00  0.52  0.34  0.00  0.00  0.75  0.00
  YS02001664YS02001661    1.00   0.13  0.00  0.00  0.77  0.10  0.00  0.00  0.86  0.00
  YS02001745YS02001748    1.00   0.00  0.00  0.00  0.07  0.01  0.00  0.92  0.05  0.00
  YS02001748YS02001751    1.00   0.00  0.00  0.00  0.82  0.18  0.00  0.00  0.78  0.00
  YS02001751YS02001754    1.00   0.00  0.00  0.00  0.12  0.00  0.00  0.88  0.02  0.00
  YS02001754YS02001757    1.00   0.00  0.00  0.00  1.00  0.00  0.00  0.00  0.87  0.00
  YS02001757CaochengTiaoxuchi    1.00   0.00  0.00  0.00  1.00  0.00  0.00  0.00  0.86  0.00
  YS02001759YS02001757    1.00   0.00  0.00  0.00  1.00  0.00  0.00  0.00  0.64  0.00
  YS02001762YS02001759    1.00   0.00  0.00  0.00  1.00  0.00  0.00  0.00  0.03  0.00
  YS02001765YS02001762    1.00   0.00  0.00  0.00  1.00  0.00  0.00  0.00  0.75  0.00
  YS02001767YS02001765    1.00   0.00  0.00  0.00  1.00  0.00  0.00  0.00  0.00  0.00
  YS02001770YS02001767    1.00   0.00  0.00  0.00  1.00  0.00  0.00  0.00  0.00  0.00
  YS02001774YS02001770    1.00   0.00  0.13  0.00  0.60  0.00  0.27  0.00  0.03  0.00
  YS02001779YS02001774    1.00   0.00  0.00  0.00  1.00  0.00  0.00  0.00  0.79  0.00
  YS02001783YS02001784    1.00   0.00  0.18  0.00  0.82  0.00  0.00  0.00  0.58  0.00
  YS02001784YS02001785    1.00   0.00  0.00  0.00  1.00  0.00  0.00  0.00  0.16  0.00
  YS02001786YS02001788    1.00   0.00  0.00  0.00  0.79  0.21  0.00  0.00  0.00  0.00
  YS02001788YS02001790    1.00   0.00  0.00  0.00  0.19  0.81  0.00  0.00  0.84  0.00
  YS02001790YS02001791    1.00   0.00  0.00  0.00  0.01  0.99  0.00  0.00  0.17  0.00
  YS02001791YS02001793    1.00   0.00  0.00  0.00  0.00  1.00  0.00  0.00  0.01  0.00
  YS02001793JiankangQianchi    1.00   0.00  0.00  0.00  0.99  0.00  0.00  0.00  0.96  0.00
  YS02001882YS02001884    1.00   0.15  0.01  0.00  0.84  0.00  0.00  0.00  0.00  0.00
  YS02001884YS02001887    1.00   0.06  0.05  0.00  0.89  0.00  0.00  0.00  0.00  0.00
  YS02001887YS02001890    1.00   0.00  0.00  0.00  0.97  0.00  0.03  0.00  0.00  0.00
  YS02001890YS02001895    1.00   0.00  0.16  0.00  0.84  0.00  0.00  0.00  0.00  0.00
  YS02001895YS02001898    1.00   0.16  0.00  0.00  0.82  0.00  0.01  0.00  0.00  0.00
  YS02001898YS02001901    1.00   0.17  0.00  0.00  0.83  0.00  0.00  0.00  0.01  0.00
  YS02001901YS02001904    1.00   0.16  0.00  0.00  0.84  0.00  0.00  0.00  0.00  0.00
  YS02001904YS02001907    1.00   0.00  0.16  0.00  0.84  0.00  0.00  0.00  0.00  0.00
  YS02001907YS02006553    1.00   0.00  0.02  0.00  0.98  0.00  0.00  0.00  0.00  0.00
  YS02001910YS02001907    1.00   0.00  0.00  0.00  0.97  0.00  0.00  0.03  0.12  0.00
  YS02001915YS02001910    1.00   0.00  0.00  0.00  0.97  0.03  0.00  0.00  0.15  0.00
  YS02001918YS02001915    1.00   0.00  0.01  0.00  0.98  0.02  0.00  0.00  0.78  0.00
  YS02001920YS02001918    1.00   0.00  0.01  0.00  0.99  0.00  0.00  0.00  0.00  0.00
  YS02001923YS02001920    1.00   0.00  0.00  0.00  1.00  0.00  0.00  0.00  0.94  0.00
  YS02001926YS02001923    1.00   0.00  0.07  0.00  0.04  0.00  0.88  0.00  0.00  0.00
  YS02001929YS02001926    1.00   0.00  0.13  0.00  0.87  0.00  0.00  0.00  0.84  0.00
  YS02006553YS02006556    1.00   0.01  0.00  0.00  0.99  0.00  0.00  0.00  0.03  0.00
  YS02006556YS02006558    1.00   0.00  0.00  0.00  1.00  0.00  0.00  0.00  0.00  0.00
  YS02006558YS02006561    1.00   0.17  0.00  0.00  0.04  0.79  0.00  0.00  0.19  0.00
  YS02006561YS02001783    1.00   0.18  0.00  0.00  0.06  0.76  0.00  0.00  0.72  0.00
  YS02163301YS02001633    1.00   0.00  0.15  0.00  0.85  0.00  0.00  0.00  0.00  0.00
  YS02163601YS02164001    1.00   0.00  0.08  0.00  0.92  0.00  0.00  0.00  0.00  0.00
  YS02164001YS02001641    1.00   0.01  0.07  0.00  0.92  0.00  0.00  0.00  0.06  0.00
  
  
  *************************
  Conduit Surcharge Summary
  *************************
  
  ----------------------------------------------------------------------------
                                                           Hours        Hours 
                         --------- Hours Full --------   Above Full   Capacity
  Conduit                Both Ends  Upstream  Dnstream   Normal Flow   Limited
  ----------------------------------------------------------------------------
  WS02003072WS02003073        0.01      0.01      0.01      1.53         0.01
  WS02004404WS02004405        0.01      0.01      0.01      1.88         0.01
  WS02004405WS02004406        0.01      0.01      0.01      0.84         0.01
  WS02006109WS02006110        0.87      0.87      1.39      0.98         0.01
  WS02006110WS02006113        0.01      0.01      1.39      0.01         0.01
  WS02006111WS02006112        0.01      0.01      1.46      0.01         0.01
  WS02006112WS02006115        0.01      0.01      0.90      0.01         0.01
  WS02006228WS02006109        1.38      1.39      1.38      1.56         1.37
  WS02006229WS02006228        1.37      1.38      1.37      1.44         1.36
  WS02006230WS02006229        1.40      1.42      1.40      2.30         1.40
  WS02006231WS02006230        0.89      0.89      1.04      2.06         0.01
  WS02006232WS02006231        1.00      1.00      1.40      1.06         0.01
  WS02006234WS02006232        1.35      1.35      1.40      1.04         1.03
  WS02006235WS02006234        1.23      1.24      1.35      1.90         0.01
  WS02006238WS02006235        1.36      1.36      1.40      0.01         0.01
  WS02006239WS02006238        1.38      1.39      1.38      1.35         1.21
  WS02006240WS02006239        1.36      1.37      1.36      1.37         1.18
  WS02006242WS02006240        1.37      1.37      1.39      1.45         0.01
  WS02006243WS02006242        1.36      1.36      1.38      0.01         0.04
  WS02006245WS02006243        1.35      1.35      1.36      0.49         0.45
  WS02006247WS02006245        1.35      1.35      1.35      1.56         1.33
  WS02006248WS02006247        1.34      1.34      1.35      0.01         0.04
  WS02006249WS02006248        1.34      1.34      1.34      1.54         0.01
  WS02006251WS02006249        1.34      1.34      1.34      1.48         1.28
  WS02006252WS02006251        1.57      1.57      1.57      1.57         0.01
  WS02006256WS02006235        1.92      1.97      3.44      1.31         0.01
  YS02001580YS02001583        0.44      0.44      0.49      0.01         0.01
  YS02001583YS02001586        0.45      0.45      0.57      0.01         0.01
  YS02001586YS02001590        0.58      0.58      0.64      0.01         0.01
  YS02001590YS02001593        0.64      0.64      0.65      0.70         0.01
  YS02001593YS02001596        0.65      0.65      0.73      0.01         0.01
  YS02001596YS02001600        0.76      0.76      0.86      0.01         0.01
  YS02001600YS02001601        0.91      0.91      1.24      0.01         0.01
  YS02001601YS02001602        1.10      1.10      1.30      0.87         0.01
  YS02001602YS02001605        1.04      1.04      1.10      2.02         0.01
  YS02001605YS02001607        0.99      1.04      0.99      1.18         0.99
  YS02001607YS02001610        0.61      0.61      0.63      0.01         0.01
  YS02001610YS02001613        0.60      0.60      0.63      0.01         0.01
  YS02001613YS02001616        0.56      0.56      0.60      0.01         0.01
  YS02001616YS02001619        0.55      0.55      0.56      0.01         0.01
  YS02001619YS02001622        0.55      0.55      0.55      0.66         0.52
  YS02001622YS02001625        0.55      0.55      0.70      0.01         0.01
  YS02001625YS02001629        0.50      0.50      0.70      0.01         0.01
  YS02001629YS02163301        0.70      0.70      0.71      0.14         0.15
  YS02001633YS02163601        0.73      0.73      0.75      0.36         0.35
  YS02001641YS02001644        0.64      0.67      0.64      1.37         0.64
  YS02001644YS02001647        0.47      0.47      0.64      0.03         0.01
  YS02001647YS02001649        0.47      0.47      0.58      0.01         0.01
  YS02001649YS02001757        0.57      0.58      0.63      0.23         0.20
  YS02001652YS02001649        0.41      0.41      0.58      0.01         0.01
  YS02001655YS02001652        0.23      0.23      0.39      0.01         0.01
  YS02001658YS02001655        0.06      0.06      0.23      0.01         0.01
  YS02001661YS02001658        0.01      0.01      0.06      0.01         0.01
  YS02001664YS02001661        0.01      0.01      0.01      0.01         0.01
  YS02001745YS02001748        0.01      0.01      0.01      0.01         0.01
  YS02001748YS02001751        0.02      0.02      0.11      0.01         0.01
  YS02001751YS02001754        0.11      0.11      0.28      0.01         0.01
  YS02001754YS02001757        0.32      0.32      0.63      0.01         0.01
  YS02001757CaochengTiaoxuchi        0.58      0.63      1.09      0.27         0.20
  YS02001759YS02001757        0.53      0.53      0.63      0.01         0.01
  YS02001762YS02001759        0.50      0.50      0.53      0.01         0.02
  YS02001765YS02001762        0.45      0.45      0.50      0.01         0.01
  YS02001767YS02001765        0.42      0.42      0.45      0.01         0.02
  YS02001770YS02001767        0.42      0.42      0.42      0.38         0.29
  YS02001774YS02001770        0.39      0.39      0.48      0.01         0.01
  YS02001779YS02001774        0.27      0.27      0.48      0.01         0.01
  YS02001783YS02001784        0.37      0.39      0.37      0.50         0.37
  YS02001784YS02001785        0.27      0.37      0.27      0.69         0.27
  YS02001786YS02001788        0.01      0.27      0.01      0.58         0.01
  YS02001790YS02001791        0.01      0.01      0.01      0.36         0.01
  YS02001793JiankangQianchi        0.01      0.01      7.67      0.01         0.01
  YS02001882YS02001884        0.34      0.34      0.35      0.01         0.01
  YS02001884YS02001887        0.37      0.37      0.38      0.01         0.01
  YS02001887YS02001890        0.39      0.39      0.40      0.03         0.01
  YS02001890YS02001895        0.33      0.33      0.41      0.01         0.01
  YS02001895YS02001898        0.33      0.33      0.33      0.01         0.01
  YS02001898YS02001901        0.33      0.33      0.37      0.01         0.01
  YS02001901YS02001904        0.36      0.36      0.37      0.01         0.01
  YS02001904YS02001907        0.36      0.36      0.56      0.01         0.01
  YS02001907YS02006553        0.70      0.70      0.76      0.01         0.01
  YS02001910YS02001907        0.41      0.41      0.55      0.01         0.01
  YS02001915YS02001910        0.34      0.34      0.41      0.01         0.01
  YS02001918YS02001915        0.26      0.26      0.34      0.01         0.01
  YS02001920YS02001918        0.26      0.26      0.28      0.01         0.01
  YS02001923YS02001920        0.22      0.22      0.28      0.01         0.01
  YS02001926YS02001923        0.01      0.01      0.02      0.01         0.01
  YS02001929YS02001926        0.01      0.01      0.02      0.01         0.01
  YS02006553YS02006556        0.48      0.48      0.56      0.01         0.01
  YS02006556YS02006558        0.52      0.52      0.57      0.01         0.01
  YS02006558YS02006561        0.30      0.47      0.30      0.65         0.30
  YS02006561YS02001783        0.23      0.23      0.39      0.01         0.01
  YS02163301YS02001633        0.71      0.71      0.74      0.01         0.01
  YS02163601YS02164001        0.68      0.68      0.75      0.03         0.01
  YS02164001YS02001641        0.67      0.68      0.67      0.68         0.59
  
  
  ***************
  Pumping Summary
  ***************
  
  ---------------------------------------------------------------------------------------------------------
                                                  Min       Avg       Max     Total     Power    % Time Off
                        Percent   Number of      Flow      Flow      Flow    Volume     Usage    Pump Curve
  Pump                 Utilized   Start-Ups       LPS       LPS       LPS  10^6 ltr     Kw-hr    Low   High
  ---------------------------------------------------------------------------------------------------------
  CC-R1                   18.91          15      0.00    683.00    683.00     3.720     67.50    0.0   31.6
  CC-R2                   17.73          15      0.00    683.00    683.00     3.488     63.19    0.0   33.7
  CC-S1                   20.33          15      0.00    200.00    200.00     1.171      7.09    0.0    0.0
  CC-S2                   19.62          15      0.00    200.00    200.00     1.130      6.84    0.0    0.0
  JK-R1                    6.06          10      0.00   1000.00   1000.00     1.746     21.03    0.0    0.0
  JK-R2                    0.16           1      0.00   1000.00   1000.00     0.047      0.36    0.0    0.0
  JK-S                    16.37          17      0.00    300.00    300.00     1.414     20.65    0.0    0.0
  XR-1                    97.91           2      0.00     95.00     95.00     2.679      9.60    0.0    0.0
  XR-2                    93.94           2      0.00     95.00     95.00     2.570      8.76    0.0    0.0
  XR-3                     0.00           1      0.00     95.00     95.00     0.000      0.00    0.0    0.0
  XR-4                     0.00           1      0.00     95.00     95.00     0.000      0.00    0.0    0.0
  

  Analysis begun on:  Wed Nov  5 16:32:14 2025
  Analysis ended on:  Wed Nov  5 16:32:16 2025
  Total elapsed time: 00:00:02