
  EPA STORM WATER MANAGEMENT MODEL - VERSION 5.2 (Build 5.2.4)
  PYSWMM TOOLKIT API - VERSION v1.0 (2023-11-27)
  ------------------------------------------------------------

  WARNING 04: minimum elevation drop used for Conduit WS02004404WS02004405
  WARNING 03: negative offset ignored for Link YS02001904YS02001907
  
  ****************
  Analysis Options
  ****************
  Flow Units ............... LPS
  Process Models:
    Rainfall/Runoff ........ YES
    RDII ................... NO
    Snowmelt ............... NO
    Groundwater ............ NO
    Flow Routing ........... YES
    Ponding Allowed ........ NO
    Water Quality .......... NO
  Infiltration Method ...... HORTON
  Flow Routing Method ...... DYNWAVE
  Surcharge Method ......... EXTRAN
  Starting Date ............ 08/28/2015 08:00:00
  Ending Date .............. 08/28/2015 16:00:00
  Antecedent Dry Days ...... 8.0
  Report Time Step ......... 00:01:00
  Wet Time Step ............ 00:01:00
  Dry Time Step ............ 00:01:00
  Routing Time Step ........ 30.00 sec
  Variable Time Step ....... YES
  Maximum Trials ........... 8
  Number of Threads ........ 4
  Head Tolerance ........... 0.001500 m
  
  
  **************************        Volume         Depth
  Runoff Quantity Continuity     hectare-m            mm
  **************************     ---------       -------
  Initial LID Storage ......         0.049         1.488
  Total Precipitation ......         2.172        65.472
  Evaporation Loss .........         0.000         0.000
  Infiltration Loss ........         0.078         2.356
  Surface Runoff ...........         1.610        48.546
  Final Storage ............         0.534        16.085
  Continuity Error (%) .....        -0.040
  
  
  **************************        Volume        Volume
  Flow Routing Continuity        hectare-m      10^6 ltr
  **************************     ---------     ---------
  Dry Weather Inflow .......         0.602         6.020
  Wet Weather Inflow .......         1.610        16.102
  Groundwater Inflow .......         0.000         0.000
  RDII Inflow ..............         0.000         0.000
  External Inflow ..........         0.105         1.045
  External Outflow .........         1.908        19.077
  Flooding Loss ............         0.388         3.877
  Evaporation Loss .........         0.000         0.000
  Exfiltration Loss ........         0.000         0.000
  Initial Stored Volume ....         0.303         3.031
  Final Stored Volume ......         0.330         3.304
  Continuity Error (%) .....        -0.228
  
  
  *************************
  Highest Continuity Errors
  *************************
  Node YS02001583 (-5.28%)
  Node YS02001884 (5.20%)
  Node WS02006256 (-1.19%)
  
  
  ***************************
  Time-Step Critical Elements
  ***************************
  Link WS02004404WS02004405 (29.21%)
  Link WS02006238WS02006235 (20.50%)
  Link WS02006252WS02006251 (12.07%)
  Link YS02001791YS02001793 (11.43%)
  Link WS02003066WSF200 (7.61%)
  
  
  ********************************
  Highest Flow Instability Indexes
  ********************************
  Link WS02006113WS02006111 (29)
  Link WS02006252WS02006251 (24)
  Link WS02006238WS02006235 (20)
  Link YS02006558YS02006561 (17)
  Link WS02006111WS02006112 (16)
  
  
  *********************************
  Most Frequent Nonconverging Nodes
  *********************************
  Node CC-1 (18.84%)
  Node CC-2 (18.84%)
  Node JK-1 (18.84%)
  Node JK-2 (18.84%)
  Node WSC (18.84%)
  
  
  *************************
  Routing Time Step Summary
  *************************
  Minimum Time Step           :     0.01 sec
  Average Time Step           :     3.21 sec
  Maximum Time Step           :     7.04 sec
  % of Time in Steady State   :     0.00
  Average Iterations per Step :     3.54
  % of Steps Not Converging   :    18.84
  Time Step Frequencies       :
     30.000 - 13.228 sec      :     0.00 %
     13.228 -  5.833 sec      :    21.33 %
      5.833 -  2.572 sec      :    32.81 %
      2.572 -  1.134 sec      :    24.11 %
      1.134 -  0.500 sec      :    21.75 %
  
  
  ***************************
  Subcatchment Runoff Summary
  ***************************
  
  ------------------------------------------------------------------------------------------------------------------------------
                            Total      Total      Total      Total     Imperv       Perv      Total       Total     Peak  Runoff
                           Precip      Runon       Evap      Infil     Runoff     Runoff     Runoff      Runoff   Runoff   Coeff
  Subcatchment                 mm         mm         mm         mm         mm         mm         mm    10^6 ltr      LPS
  ------------------------------------------------------------------------------------------------------------------------------
  sub60                     65.47       0.00       0.00       1.40      43.54       4.67      48.21        0.63   401.24   0.736
  sub61                     65.47       0.00       0.00       2.14      43.50       6.96      50.46        0.93   586.71   0.771
  sub62                     65.47       0.00       0.00       0.95      46.37       3.17      49.55        1.36   803.93   0.757
  sub63                     65.47       0.00       0.00       3.93      37.26      11.61      48.87        1.11   673.17   0.746
  sub64                     65.47       0.00       0.00       1.89      42.42       5.76      48.19        1.16   665.08   0.736
  sub65                     65.47       0.00       0.00       1.73      45.79       5.26      51.05        1.41   782.00   0.780
  sub66                     65.47       0.00       0.00       4.61      36.03      10.45      46.48        2.17  1040.53   0.710
  sub67                     65.47       0.00       0.00       0.94      47.54       3.28      50.83        0.95   618.34   0.776
  sub68                     65.47       0.00       0.00       1.65      41.99       5.34      47.33        1.30   801.41   0.723
  sub69                     65.47       0.00       0.00       1.51      44.02       6.27      50.29        1.86  1010.45   0.768
  sub70                     65.47       0.00       0.00       5.10      35.27      13.12      48.39        1.40   604.79   0.739
  sub71                     65.47       0.00       0.00       0.88      42.13       2.87      45.00        1.18   670.20   0.687
  sub72                     65.47       0.00       0.00       0.84      45.51       2.67      48.17        0.66   350.62   0.736
  

  ***********************
  LID Performance Summary
  ***********************

  --------------------------------------------------------------------------------------------------------------------
                                         Total      Evap     Infil   Surface    Drain    Initial     Final  Continuity
                                        Inflow      Loss      Loss   Outflow   Outflow   Storage   Storage       Error
  Subcatchment      LID Control             mm        mm        mm        mm        mm        mm        mm           %
  --------------------------------------------------------------------------------------------------------------------
  sub60             GreenRoof            65.47      0.00      0.00      0.00      0.00      7.05     72.60       -0.11
  sub61             GreenRoof            65.47      0.00      0.00      0.00      0.00      7.05     72.60       -0.11
  sub62             GreenRoof            65.47      0.00      0.00      0.00      0.00      7.05     72.60       -0.11
  sub63             GreenRoof            65.47      0.00      0.00      0.00      0.00      7.05     72.60       -0.11
  sub64             GreenRoof            65.47      0.00      0.00      0.00      0.00      7.05     72.60       -0.11
  sub65             GreenRoof            65.47      0.00      0.00      0.00      0.00      7.05     72.60       -0.11
  sub66             GreenRoof            65.47      0.00      0.00      0.00      0.00      7.05     72.60       -0.11
  sub67             GreenRoof            65.47      0.00      0.00      0.00      0.00      7.05     72.60       -0.11
  sub68             GreenRoof            65.47      0.00      0.00      0.00      0.00      7.05     72.60       -0.11
  sub69             GreenRoof            65.47      0.00      0.00      0.00      0.00      7.05     72.60       -0.11
  sub70             GreenRoof            65.47      0.00      0.00      0.00      0.00      7.05     72.60       -0.11
  sub71             GreenRoof            65.47      0.00      0.00      0.00      0.00      7.05     72.60       -0.11
  sub72             GreenRoof            65.47      0.00      0.00      0.00      0.00      7.05     72.60       -0.11
  
  ******************
  Node Depth Summary
  ******************
  
  ---------------------------------------------------------------------------------
                                 Average  Maximum  Maximum  Time of Max    Reported
                                   Depth    Depth      HGL   Occurrence   Max Depth
  Node                 Type       Meters   Meters   Meters  days hr:min      Meters
  ---------------------------------------------------------------------------------
  WS02001211           JUNCTION     0.60     0.64     5.48     0  02:30        0.64
  WS02001212           JUNCTION     0.34     0.38     5.45     0  02:33        0.38
  WS02001213           JUNCTION     0.53     0.65     5.41     0  02:27        0.65
  WS02003059           JUNCTION     0.59     0.72     5.40     0  02:28        0.72
  WS02003060           JUNCTION     0.30     0.45     5.38     0  02:31        0.45
  WS02003066           JUNCTION     0.16     0.30     5.85     0  02:23        0.30
  WS02003067           JUNCTION     0.44     0.70     6.02     0  02:22        0.70
  WS02003069           JUNCTION     0.34     0.51     5.09     0  02:29        0.51
  WS02003072           JUNCTION     0.40     0.57     4.94     0  02:29        0.57
  WS02003073           JUNCTION     0.24     0.35     4.41     0  02:30        0.35
  WS02004138           JUNCTION     0.13     0.14     7.39     0  00:29        0.14
  WS02004139           JUNCTION     0.54     0.58     5.49     0  02:31        0.58
  WS02004401           JUNCTION     0.53     0.85     6.85     0  02:20        0.85
  WS02004402           JUNCTION     0.56     0.88     6.84     0  02:20        0.88
  WS02004403           JUNCTION     0.59     0.89     6.82     0  02:17        0.89
  WS02004404           JUNCTION     0.66     0.96     6.81     0  02:17        0.96
  WS02004405           JUNCTION     0.66     0.96     6.81     0  02:17        0.95
  WS02004406           JUNCTION     0.67     0.96     6.79     0  02:18        0.96
  WS02004407           JUNCTION     0.14     0.30     6.61     0  02:21        0.29
  WS02004409           JUNCTION     0.32     0.67     6.44     0  02:21        0.67
  WS02004410           JUNCTION     0.35     0.68     6.40     0  02:22        0.68
  WS02004411           JUNCTION     0.37     0.69     6.37     0  02:22        0.69
  WS02004412           JUNCTION     0.39     0.70     6.34     0  02:22        0.70
  WS02004413           JUNCTION     0.55     0.86     6.33     0  02:22        0.86
  WS02006109           JUNCTION     0.59     1.21     7.82     0  02:16        1.01
  WS02006110           JUNCTION     0.60     1.20     7.79     0  02:37        0.97
  WS02006111           JUNCTION     0.15     0.29     7.00     0  02:16        0.29
  WS02006112           JUNCTION     0.68     1.10     6.99     0  02:47        1.06
  WS02006113           JUNCTION     0.23     0.46     7.36     0  02:16        0.46
  WS02006115           JUNCTION     0.42     0.75     6.89     0  02:20        0.75
  WS02006116           JUNCTION     0.50     0.83     6.87     0  02:17        0.83
  WS02006228           JUNCTION     0.59     1.37     8.02     0  02:31        1.20
  WS02006229           JUNCTION     0.56     1.43     8.13     0  02:31        1.27
  WS02006230           JUNCTION     0.56     1.70     8.45     0  02:31        1.28
  WS02006231           JUNCTION     0.37     1.78     8.91     0  02:16        1.78
  WS02006232           JUNCTION     0.50     2.18     9.22     0  02:16        2.18
  WS02006234           JUNCTION     0.43     1.96     9.12     0  02:16        1.96
  WS02006235           JUNCTION     0.47     2.00     9.16     0  02:16        2.00
  WS02006238           JUNCTION     0.50     2.15     9.29     0  02:16        2.15
  WS02006239           JUNCTION     0.46     2.03     9.24     0  02:16        2.03
  WS02006240           JUNCTION     0.43     2.08     9.37     0  02:16        2.08
  WS02006242           JUNCTION     0.49     1.55     8.82     0  02:00        1.55
  WS02006243           JUNCTION     0.42     1.48     8.90     0  02:02        1.48
  WS02006245           JUNCTION     0.42     1.56     9.04     0  02:11        1.56
  WS02006247           JUNCTION     0.44     1.47     8.97     0  02:11        1.47
  WS02006248           JUNCTION     0.41     1.10     8.69     0  02:02        1.10
  WS02006249           JUNCTION     0.44     1.09     8.69     0  02:02        1.09
  WS02006251           JUNCTION     0.43     1.43     9.10     0  02:03        1.19
  WS02006252           JUNCTION     0.30     1.50     9.74     0  00:00        0.94
  WS02006256           JUNCTION     1.09     2.35     9.28     0  00:00        2.35
  WSF200               JUNCTION     0.14     0.31     5.54     0  02:30        0.31
  YS02001580           JUNCTION     0.11     1.05     9.59     0  02:04        0.77
  YS02001583           JUNCTION     0.14     1.06     9.56     0  02:04        0.84
  YS02001586           JUNCTION     0.24     1.13     9.30     0  02:04        1.13
  YS02001590           JUNCTION     0.35     1.40     9.26     0  02:04        1.40
  YS02001593           JUNCTION     0.28     1.33     9.19     0  02:04        1.28
  YS02001596           JUNCTION     0.39     1.69     9.10     0  02:04        1.65
  YS02001600           JUNCTION     0.50     1.87     9.00     0  02:04        1.86
  YS02001601           JUNCTION     0.69     2.06     8.90     0  02:03        2.06
  YS02001602           JUNCTION     0.60     1.87     8.77     0  02:04        1.87
  YS02001605           JUNCTION     0.55     1.78     8.68     0  02:04        1.78
  YS02001607           JUNCTION     0.52     1.65     8.50     0  02:20        1.65
  YS02001610           JUNCTION     0.56     1.68     8.48     0  02:04        1.68
  YS02001613           JUNCTION     0.52     1.65     8.50     0  02:10        1.65
  YS02001616           JUNCTION     0.45     1.61     8.52     0  02:11        1.61
  YS02001619           JUNCTION     0.43     1.61     8.54     0  02:11        1.61
  YS02001622           JUNCTION     0.42     1.59     8.49     0  02:11        1.59
  YS02001625           JUNCTION     0.67     1.78     8.38     0  02:06        1.78
  YS02001629           JUNCTION     0.56     1.85     8.40     0  02:08        1.85
  YS02001633           JUNCTION     0.64     2.03     8.48     0  02:11        2.03
  YS02001641           JUNCTION     0.61     1.94     8.38     0  02:09        1.94
  YS02001644           JUNCTION     0.60     1.92     8.35     0  02:09        1.92
  YS02001647           JUNCTION     0.38     1.74     8.35     0  02:13        1.73
  YS02001649           JUNCTION     0.43     1.95     8.34     0  02:13        1.93
  YS02001652           JUNCTION     0.31     1.79     8.38     0  02:13        1.76
  YS02001655           JUNCTION     0.23     1.67     8.52     0  02:09        1.55
  YS02001658           JUNCTION     0.16     1.55     8.69     0  02:09        1.29
  YS02001661           JUNCTION     0.18     1.13     8.54     0  02:13        1.04
  YS02001664           JUNCTION     0.07     0.49     8.41     0  02:12        0.40
  YS02001745           JUNCTION     0.08     0.73     8.25     0  02:13        0.73
  YS02001748           JUNCTION     0.15     1.50     8.57     0  02:10        1.17
  YS02001751           JUNCTION     0.20     1.53     8.41     0  02:10        1.37
  YS02001754           JUNCTION     0.27     1.75     8.36     0  02:10        1.63
  YS02001757           JUNCTION     0.45     2.00     8.26     0  02:10        1.97
  YS02001759           JUNCTION     0.39     1.96     8.33     0  02:10        1.94
  YS02001762           JUNCTION     0.37     1.98     8.38     0  02:10        1.92
  YS02001765           JUNCTION     0.35     1.97     8.42     0  02:10        1.89
  YS02001767           JUNCTION     0.35     1.95     8.44     0  02:10        1.87
  YS02001770           JUNCTION     0.36     1.95     8.44     0  02:10        1.95
  YS02001774           JUNCTION     0.42     2.01     8.44     0  02:10        2.00
  YS02001779           JUNCTION     0.25     1.68     8.37     0  02:07        1.68
  YS02001783           JUNCTION     0.30     1.27     7.41     0  02:09        1.22
  YS02001784           JUNCTION     0.31     1.15     7.22     0  02:09        1.11
  YS02001786           JUNCTION     0.26     0.89     6.92     0  02:09        0.87
  YS02001788           JUNCTION     0.19     0.62     6.60     0  02:12        0.62
  YS02001790           JUNCTION     0.22     0.72     6.37     0  02:12        0.72
  YS02001791           JUNCTION     0.14     0.44     5.91     0  02:12        0.43
  YS02001793           JUNCTION     0.08     0.30     5.13     0  02:11        0.29
  YS02001882           JUNCTION     0.36     1.65     8.36     0  02:09        1.64
  YS02001884           JUNCTION     0.45     1.74     8.36     0  02:09        1.74
  YS02001887           JUNCTION     0.52     1.83     8.37     0  02:11        1.83
  YS02001890           JUNCTION     0.55     1.81     8.32     0  02:09        1.81
  YS02001895           JUNCTION     0.33     1.61     8.36     0  02:16        1.61
  YS02001898           JUNCTION     0.34     1.61     8.34     0  02:16        1.61
  YS02001901           JUNCTION     0.45     1.68     8.29     0  02:11        1.68
  YS02001904           JUNCTION     0.43     1.64     8.27     0  02:14        1.64
  YS02001907           JUNCTION     0.74     1.96     8.25     0  02:09        1.96
  YS02001910           JUNCTION     0.54     2.03     8.54     0  02:10        1.82
  YS02001915           JUNCTION     0.36     2.00     8.72     0  02:10        1.68
  YS02001918           JUNCTION     0.18     1.81     8.88     0  02:10        1.41
  YS02001920           JUNCTION     0.27     2.13     9.13     0  02:10        1.58
  YS02001923           JUNCTION     0.14     2.03     9.29     0  02:10        1.49
  YS02001926           JUNCTION     0.18     1.90     9.35     0  02:10        1.01
  YS02001929           JUNCTION     0.10     1.78     9.47     0  02:10        0.83
  YS02006553           JUNCTION     0.74     1.98     8.26     0  02:09        1.97
  YS02006556           JUNCTION     0.72     1.96     8.27     0  02:09        1.94
  YS02006558           JUNCTION     0.76     2.00     8.27     0  02:09        2.00
  YS02006561           JUNCTION     0.18     0.95     7.61     0  02:09        0.89
  YS02163301           JUNCTION     0.58     1.92     8.44     0  02:08        1.92
  YS02163601           JUNCTION     0.67     2.02     8.41     0  02:09        2.01
  YS02164001           JUNCTION     0.60     1.94     8.40     0  02:11        1.94
  CC-1                 OUTFALL      0.00     0.00     0.00     0  00:00        0.00
  CC-2                 OUTFALL      0.00     0.00     0.00     0  00:00        0.00
  JK-1                 OUTFALL      0.00     0.00     0.00     0  00:00        0.00
  JK-2                 OUTFALL      0.00     0.00     0.00     0  00:00        0.00
  WSC                  OUTFALL      0.24     0.35     1.02     0  02:30        0.35
  CC-storage           STORAGE      0.87     1.70     7.20     0  02:34        1.70
  JK-storage           STORAGE      3.25     4.23     5.03     0  02:11        4.21
  XR-storage           STORAGE      7.82     9.26     7.26     0  08:00        9.26
  
  
  *******************
  Node Inflow Summary
  *******************
  
  -------------------------------------------------------------------------------------------------
                                  Maximum  Maximum                  Lateral       Total        Flow
                                  Lateral    Total  Time of Max      Inflow      Inflow     Balance
                                   Inflow   Inflow   Occurrence      Volume      Volume       Error
  Node                 Type           LPS      LPS  days hr:min    10^6 ltr    10^6 ltr     Percent
  -------------------------------------------------------------------------------------------------
  WS02001211           JUNCTION      7.35   200.28     0  02:43       0.212        5.44       0.611
  WS02001212           JUNCTION      0.00   202.35     0  03:46           0        5.41       0.290
  WS02001213           JUNCTION      0.00   204.47     0  03:47           0        5.39       0.332
  WS02003059           JUNCTION      0.00   209.55     0  03:47           0        5.38       0.593
  WS02003060           JUNCTION     16.53   749.99     0  02:31       0.476        9.35       0.153
  WS02003066           JUNCTION      0.00   533.94     0  02:23           0        3.52       0.038
  WS02003067           JUNCTION      0.00   533.85     0  02:22           0        3.52       0.118
  WS02003069           JUNCTION      0.32   745.74     0  02:31     0.00922        9.33       0.161
  WS02003072           JUNCTION      0.00   745.18     0  02:29           0        9.32       0.220
  WS02003073           JUNCTION      1.82   746.74     0  02:30      0.0524        9.35       0.228
  WS02004138           JUNCTION      0.00   380.00     0  00:00           0        5.25       0.053
  WS02004139           JUNCTION      0.32   191.16     0  00:29     0.00924        5.26       0.509
  WS02004401           JUNCTION      0.00   546.30     0  02:17           0        3.62       0.277
  WS02004402           JUNCTION      0.00   543.63     0  02:17           0        3.61       0.283
  WS02004403           JUNCTION      0.00   543.24     0  02:17           0         3.6       0.276
  WS02004404           JUNCTION      0.16   540.79     0  02:17     0.00467         3.6       0.232
  WS02004405           JUNCTION      0.04   540.89     0  02:17      0.0011        3.59       0.345
  WS02004406           JUNCTION      0.00   542.29     0  02:17           0        3.58       0.573
  WS02004407           JUNCTION      0.00   538.06     0  02:18           0        3.56       0.029
  WS02004409           JUNCTION      0.00   536.08     0  02:21           0        3.56       0.073
  WS02004410           JUNCTION      0.00   535.32     0  02:22           0        3.55       0.120
  WS02004411           JUNCTION      0.00   534.94     0  02:22           0        3.55       0.154
  WS02004412           JUNCTION      0.00   534.58     0  02:22           0        3.55       0.208
  WS02004413           JUNCTION      0.00   534.01     0  02:22           0        3.54       0.371
  WS02006109           JUNCTION      1.23   589.88     0  02:16      0.0354        3.67       0.228
  WS02006110           JUNCTION      0.00   587.08     0  02:16           0        3.66       0.191
  WS02006111           JUNCTION      0.00   570.94     0  02:16           0        3.65       0.020
  WS02006112           JUNCTION      0.00   547.70     0  02:16           0        3.65       0.481
  WS02006113           JUNCTION      0.00   592.48     0  02:16           0        3.66       0.046
  WS02006115           JUNCTION      0.00   561.48     0  02:44           0        3.64       0.174
  WS02006116           JUNCTION      0.00   548.04     0  02:16           0        3.63       0.156
  WS02006228           JUNCTION      0.00   586.06     0  02:16           0        3.64       0.090
  WS02006229           JUNCTION      0.00   580.27     0  02:16           0        3.64       0.133
  WS02006230           JUNCTION     10.28   601.49     0  02:11       0.296        3.65       0.117
  WS02006231           JUNCTION      0.00   580.00     0  02:06           0        3.35      -0.163
  WS02006232           JUNCTION      0.00   579.25     0  02:06           0        3.36       0.347
  WS02006234           JUNCTION      0.00   574.86     0  02:06           0        3.35      -0.334
  WS02006235           JUNCTION      0.00   567.45     0  02:06           0        3.44       0.289
  WS02006238           JUNCTION      0.00   427.93     0  03:25           0        2.53      -0.105
  WS02006239           JUNCTION      0.00   428.02     0  03:25           0        2.48      -0.030
  WS02006240           JUNCTION      0.00   425.55     0  03:25           0        2.44      -0.058
  WS02006242           JUNCTION      0.00   425.11     0  03:25           0        2.41      -0.135
  WS02006243           JUNCTION      0.00   425.63     0  03:25           0        2.39      -0.028
  WS02006245           JUNCTION      0.00   425.32     0  03:25           0         2.4       0.408
  WS02006247           JUNCTION      0.00   426.62     0  03:25           0        2.39      -0.017
  WS02006248           JUNCTION      0.00   427.81     0  03:25           0        2.39      -0.098
  WS02006249           JUNCTION      0.00   458.97     0  00:00           0        2.61       0.485
  WS02006251           JUNCTION      0.08   407.91     0  02:03     0.00222        2.62       0.033
  WS02006252           JUNCTION      0.00   400.00     0  00:00           0         2.6      -0.345
  WS02006256           JUNCTION      0.00   300.00     0  00:00           0        1.37      -1.181
  WSF200               JUNCTION      0.00   533.97     0  02:23           0        3.52       0.016
  YS02001580           JUNCTION      0.00    79.50     0  02:04           0      0.0041       3.685
  YS02001583           JUNCTION      0.00   135.58     0  02:03           0      0.0151      -5.013
  YS02001586           JUNCTION    604.79   604.82     0  02:15         1.4        1.41       0.075
  YS02001590           JUNCTION      0.00   318.93     0  02:16           0         1.2      -0.024
  YS02001593           JUNCTION      0.00   318.93     0  02:16           0         1.2       0.005
  YS02001596           JUNCTION      0.00   317.98     0  02:16           0         1.2      -0.013
  YS02001600           JUNCTION      0.00   318.07     0  02:14           0         1.2       0.018
  YS02001601           JUNCTION   1010.45  1327.95     0  02:14        1.86        3.06       0.024
  YS02001602           JUNCTION      0.00   499.27     0  02:03           0        2.11       0.017
  YS02001605           JUNCTION      0.00   498.79     0  02:03           0        2.02       0.023
  YS02001607           JUNCTION      0.00   498.23     0  02:03           0        2.01       0.092
  YS02001610           JUNCTION      0.00   515.41     0  02:15           0        2.08       0.110
  YS02001613           JUNCTION      0.00   498.53     0  02:03           0        1.74       0.086
  YS02001616           JUNCTION      0.00   499.12     0  02:02           0        1.74       0.018
  YS02001619           JUNCTION   1040.53  1040.53     0  02:15        2.17        3.84      -0.002
  YS02001622           JUNCTION      0.00   913.15     0  02:06           0        3.77      -0.001
  YS02001625           JUNCTION      0.00  1149.25     0  02:14           0        3.88       0.235
  YS02001629           JUNCTION      0.00   912.45     0  02:06           0        3.15       0.017
  YS02001633           JUNCTION    782.20  1303.40     0  02:06        1.41        4.46       0.076
  YS02001641           JUNCTION      0.00  1299.82     0  02:06           0        4.35       0.065
  YS02001644           JUNCTION    665.12  1639.93     0  02:06        1.16         5.5       0.057
  YS02001647           JUNCTION      0.00  1641.45     0  02:06           0        5.35       0.008
  YS02001649           JUNCTION      0.00  1809.22     0  02:05           0        6.47       0.004
  YS02001652           JUNCTION      0.00   718.90     0  02:13           0        1.12      -0.077
  YS02001655           JUNCTION      0.15   717.82     0  02:13     0.00443        1.11      -0.056
  YS02001658           JUNCTION      0.00   715.81     0  02:13           0        1.11      -0.054
  YS02001661           JUNCTION      0.00   853.54     0  02:13           0        1.11       0.009
  YS02001664           JUNCTION    673.17   673.17     0  02:13        1.11        1.11      -0.009
  YS02001745           JUNCTION    401.25   401.25     0  02:13       0.634       0.634       0.178
  YS02001748           JUNCTION      0.04   514.37     0  02:10      0.0013       0.634      -0.293
  YS02001751           JUNCTION      0.01   416.50     0  02:13    0.000317       0.642       0.112
  YS02001754           JUNCTION      0.26   416.57     0  02:13     0.00749       0.659      -0.170
  YS02001757           JUNCTION      0.00  3018.22     0  02:11           0        9.39       0.014
  YS02001759           JUNCTION    586.75  1230.72     0  02:12       0.927        2.27      -0.014
  YS02001762           JUNCTION      0.00   679.28     0  02:11           0        1.34       0.002
  YS02001765           JUNCTION      0.00   678.49     0  02:11           0        1.34       0.013
  YS02001767           JUNCTION      0.54   679.29     0  02:11      0.0154        1.34       0.012
  YS02001770           JUNCTION    804.08   804.08     0  02:13        1.36        1.41      -0.007
  YS02001774           JUNCTION      0.00   269.46     0  02:07           0         0.1       0.956
  YS02001779           JUNCTION      0.01   273.01     0  02:07    0.000144      0.0563      -1.090
  YS02001783           JUNCTION      0.00  1157.61     0  02:12           0        3.55       0.007
  YS02001784           JUNCTION      1.06  1158.39     0  02:12      0.0305        3.58       0.014
  YS02001786           JUNCTION      0.06  1158.76     0  02:12     0.00162        3.58       0.020
  YS02001788           JUNCTION      0.07  1158.66     0  02:12     0.00204        3.58       0.008
  YS02001790           JUNCTION      0.15  1168.43     0  02:12     0.00446        3.58       0.029
  YS02001791           JUNCTION      0.00  1275.89     0  02:12           0        3.58      -0.028
  YS02001793           JUNCTION      0.00  1253.78     0  02:12           0        3.58       0.005
  YS02001882           JUNCTION      0.00    27.61     0  02:06           0      0.0125       5.269
  YS02001884           JUNCTION      0.00    64.79     0  02:06           0      0.0482       5.489
  YS02001887           JUNCTION    618.79   619.83     0  02:13       0.958       0.991       0.443
  YS02001890           JUNCTION      0.00   619.59     0  02:13           0       0.951       0.545
  YS02001895           JUNCTION      0.00   516.51     0  02:15           0       0.926       0.162
  YS02001898           JUNCTION      0.00   516.68     0  02:15           0       0.924       0.034
  YS02001901           JUNCTION      0.00   516.84     0  02:15           0       0.927       0.357
  YS02001904           JUNCTION      0.00   516.56     0  02:15           0       0.931       0.302
  YS02001907           JUNCTION      0.00  1584.50     0  02:14           0        2.85       0.635
  YS02001910           JUNCTION      0.00  1069.19     0  02:14           0        1.92       0.376
  YS02001915           JUNCTION    670.22  1068.97     0  02:14        1.18        1.95       0.076
  YS02001918           JUNCTION      0.00   441.41     0  02:10           0       0.798       0.017
  YS02001920           JUNCTION      2.87   440.76     0  02:10      0.0827       0.784       0.135
  YS02001923           JUNCTION      0.04   391.65     0  02:10     0.00109       0.688      -0.059
  YS02001926           JUNCTION      0.05   414.46     0  02:09      0.0015       0.671       0.030
  YS02001929           JUNCTION    350.62   350.62     0  02:14       0.662       0.663      -0.086
  YS02006553           JUNCTION      0.00   793.17     0  02:25           0        2.27       0.518
  YS02006556           JUNCTION      0.00   793.39     0  02:25           0        2.28       0.366
  YS02006558           JUNCTION    802.29  1157.95     0  02:11        1.33        3.58       0.098
  YS02006561           JUNCTION      0.00  1157.39     0  02:12           0        3.55      -0.003
  YS02163301           JUNCTION      0.00   911.38     0  02:06           0        3.15       0.046
  YS02163601           JUNCTION      0.11  1302.60     0  02:06     0.00317        4.35       0.111
  YS02164001           JUNCTION      0.00  1301.12     0  02:06           0        4.35       0.049
  CC-1                 OUTFALL       0.00   683.00     0  00:00           0         3.9       0.000
  CC-2                 OUTFALL       0.00   683.00     0  00:00           0        3.65       0.000
  JK-1                 OUTFALL       0.00  1000.00     0  00:00           0        2.15       0.000
  JK-2                 OUTFALL       0.00  1000.00     0  00:00           0      0.0484       0.000
  WSC                  OUTFALL       0.00   746.67     0  02:30           0        9.33       0.000
  CC-storage           STORAGE       0.00  3018.86     0  02:11           0        11.6      -0.206
  JK-storage           STORAGE       0.00  1234.33     0  02:10           0        3.74       0.051
  XR-storage           STORAGE     200.00   200.00     0  00:00        5.76        6.36       0.001
  
  
  **********************
  Node Surcharge Summary
  **********************
  
  Surcharging occurs when water rises above the top of the highest conduit.
  ---------------------------------------------------------------------
                                               Max. Height   Min. Depth
                                   Hours       Above Crown    Below Rim
  Node                 Type      Surcharged         Meters       Meters
  ---------------------------------------------------------------------
  WS02006109           JUNCTION        1.54          0.386        1.434
  WS02006110           JUNCTION        0.61          0.291        1.559
  WS02006112           JUNCTION        0.79          0.103        1.577
  WS02006228           JUNCTION        1.53          0.541        1.659
  WS02006229           JUNCTION        1.54          0.631        1.819
  WS02006230           JUNCTION        0.62          0.624        0.946
  WS02006231           JUNCTION        0.85          1.073        0.457
  WS02006232           JUNCTION        1.57          1.480        0.000
  WS02006234           JUNCTION        1.25          1.240        0.000
  WS02006235           JUNCTION        1.47          1.290        0.000
  WS02006238           JUNCTION        1.53          1.430        0.000
  WS02006239           JUNCTION        1.49          1.290        0.000
  WS02006240           JUNCTION        1.53          1.366        0.024
  WS02006242           JUNCTION        1.58          0.820        0.000
  WS02006243           JUNCTION        1.52          0.770        0.000
  WS02006245           JUNCTION        1.52          0.850        0.000
  WS02006247           JUNCTION        1.54          0.760        0.000
  WS02006248           JUNCTION        1.52          0.380        0.000
  WS02006249           JUNCTION        1.54          0.390        0.000
  WS02006251           JUNCTION        0.95          0.405        0.775
  WS02006252           JUNCTION        1.71          1.100        0.000
  WS02006256           JUNCTION        4.65          2.050        0.000
  YS02001580           JUNCTION        0.51          0.450        0.000
  YS02001583           JUNCTION        0.52          0.421        0.079
  YS02001586           JUNCTION        0.64          0.510        0.000
  YS02001590           JUNCTION        0.71          0.750        0.000
  YS02001593           JUNCTION        0.72          0.711        0.129
  YS02001596           JUNCTION        0.83          0.955        0.115
  YS02001600           JUNCTION        1.00          1.190        0.000
  YS02001601           JUNCTION        1.36          1.440        0.000
  YS02001602           JUNCTION        1.25          1.270        0.000
  YS02001605           JUNCTION        1.20          1.180        0.000
  YS02001607           JUNCTION        0.70          0.647        0.033
  YS02001610           JUNCTION        0.72          0.680        0.000
  YS02001613           JUNCTION        0.69          0.655        0.045
  YS02001616           JUNCTION        0.65          0.610        0.000
  YS02001619           JUNCTION        0.64          0.610        0.000
  YS02001622           JUNCTION        0.64          0.589        0.031
  YS02001625           JUNCTION        0.82          0.780        0.000
  YS02001629           JUNCTION        0.59          0.470        0.000
  YS02001633           JUNCTION        0.85          1.011        0.049
  YS02001641           JUNCTION        0.79          0.943        0.157
  YS02001644           JUNCTION        0.76          0.920        0.000
  YS02001647           JUNCTION        0.56          0.736        0.164
  YS02001649           JUNCTION        0.68          0.946        0.104
  YS02001652           JUNCTION        0.49          0.757        0.373
  YS02001655           JUNCTION        0.36          0.668        0.532
  YS02001658           JUNCTION        0.17          0.550        0.750
  YS02001661           JUNCTION        0.01          0.062        1.328
  YS02001748           JUNCTION        0.11          0.417        0.773
  YS02001751           JUNCTION        0.24          0.533        0.667
  YS02001754           JUNCTION        0.41          0.697        0.453
  YS02001757           JUNCTION        0.75          0.996        0.214
  YS02001759           JUNCTION        0.65          0.961        0.249
  YS02001762           JUNCTION        0.62          0.984        0.166
  YS02001765           JUNCTION        0.58          0.970        0.130
  YS02001767           JUNCTION        0.55          0.954        0.076
  YS02001770           JUNCTION        0.52          0.920        0.000
  YS02001774           JUNCTION        0.60          1.015        0.035
  YS02001779           JUNCTION        0.40          0.680        0.000
  YS02001783           JUNCTION        0.42          0.467        1.133
  YS02001784           JUNCTION        0.40          0.349        1.141
  YS02001786           JUNCTION        0.29          0.089        1.341
  YS02001882           JUNCTION        0.37          0.646        0.184
  YS02001884           JUNCTION        0.38          0.683        0.187
  YS02001887           JUNCTION        0.41          0.777        0.173
  YS02001890           JUNCTION        0.43          0.760        0.000
  YS02001895           JUNCTION        0.36          0.613        0.137
  YS02001898           JUNCTION        0.35          0.579        0.161
  YS02001901           JUNCTION        0.40          0.681        0.189
  YS02001904           JUNCTION        0.39          0.640        0.210
  YS02001907           JUNCTION        0.65          0.950        0.000
  YS02001910           JUNCTION        0.45          1.034        0.066
  YS02001915           JUNCTION        0.36          0.999        0.001
  YS02001918           JUNCTION        0.28          0.810        0.000
  YS02001920           JUNCTION        0.30          1.125        0.015
  YS02001923           JUNCTION        0.01          0.820        0.000
  YS02001926           JUNCTION        0.03          0.900        0.000
  YS02001929           JUNCTION        0.01          0.780        0.000
  YS02006553           JUNCTION        0.66          0.979        0.211
  YS02006556           JUNCTION        0.54          0.924        0.426
  YS02006558           JUNCTION        0.53          0.905        0.495
  YS02006561           JUNCTION        0.25          0.155        0.995
  YS02163301           JUNCTION        0.83          0.920        0.110
  YS02163601           JUNCTION        0.88          1.016        0.064
  YS02164001           JUNCTION        0.79          0.944        0.156
  
  
  *********************
  Node Flooding Summary
  *********************
  
  Flooding refers to all water that overflows a node, whether it ponds or not.
  --------------------------------------------------------------------------
                                                             Total   Maximum
                                 Maximum   Time of Max       Flood    Ponded
                        Hours       Rate    Occurrence      Volume     Depth
  Node                 Flooded       LPS   days hr:min    10^6 ltr    Meters
  --------------------------------------------------------------------------
  WS02006232              0.01      1.05      0  02:16       0.000     0.000
  WS02006234              0.01      3.98      0  02:16       0.000     0.000
  WS02006235              0.01     11.30      0  02:31       0.000     0.000
  WS02006238              0.01      8.61      0  02:31       0.000     0.000
  WS02006239              0.01      5.03      0  02:31       0.000     0.000
  WS02006242              0.01     60.29      0  02:00       0.000     0.000
  WS02006243              0.01     37.70      0  02:02       0.000     0.000
  WS02006245              0.01      3.23      0  03:25       0.000     0.000
  WS02006247              0.01      3.77      0  03:25       0.000     0.000
  WS02006248              0.02     48.32      0  02:02       0.001     0.000
  WS02006249              0.90     98.95      0  02:16       0.208     0.000
  WS02006252              0.01    258.28      0  03:35       0.000     0.000
  WS02006256              1.27    293.19      0  00:00       0.425     0.000
  YS02001580              0.01     48.84      0  02:04       0.000     0.000
  YS02001586              0.39    287.39      0  02:15       0.202     0.000
  YS02001590              0.01      5.02      0  02:04       0.000     0.000
  YS02001600              0.01      2.37      0  02:04       0.000     0.000
  YS02001601              0.57    930.08      0  02:14       0.947     0.000
  YS02001602              0.46     62.00      0  02:18       0.093     0.000
  YS02001605              0.01      0.57      0  02:04       0.000     0.000
  YS02001610              0.40    515.07      0  02:15       0.402     0.000
  YS02001616              0.01      0.62      0  02:11       0.000     0.000
  YS02001619              0.01      0.40      0  02:11       0.000     0.000
  YS02001625              0.38   1149.08      0  02:14       0.819     0.000
  YS02001629              0.06     54.08      0  02:11       0.007     0.000
  YS02001644              0.14    512.94      0  02:13       0.142     0.000
  YS02001770              0.01      6.88      0  02:10       0.000     0.000
  YS02001779              0.10    187.36      0  02:13       0.038     0.000
  YS02001890              0.10    108.88      0  02:13       0.020     0.000
  YS02001907              0.23   1221.03      0  02:14       0.570     0.000
  YS02001918              0.01     69.59      0  02:10       0.000     0.000
  YS02001923              0.01     53.96      0  02:10       0.000     0.000
  YS02001926              0.01     71.53      0  02:10       0.000     0.000
  YS02001929              0.01    245.07      0  02:10       0.001     0.000
  
  
  **********************
  Storage Volume Summary
  **********************
  
  ------------------------------------------------------------------------------------------------
                         Average    Avg   Evap  Exfil     Maximum    Max    Time of Max    Maximum
                          Volume   Pcnt   Pcnt   Pcnt      Volume   Pcnt     Occurrence    Outflow
  Storage Unit           1000 m³   Full   Loss   Loss     1000 m³   Full    days hr:min        LPS
  ------------------------------------------------------------------------------------------------
  CC-storage               2.437   38.0    0.0    0.0       4.727   73.7       0  02:34    1783.53
  JK-storage               0.163   56.1    0.0    0.0       0.213   73.0       0  02:11    2300.00
  XR-storage               0.939   65.2    0.0    0.0       1.111   77.2       0  08:00     380.00
  
  
  ***********************
  Outfall Loading Summary
  ***********************
  
  -----------------------------------------------------------
                         Flow       Avg       Max       Total
                         Freq      Flow      Flow      Volume
  Outfall Node           Pcnt       LPS       LPS    10^6 ltr
  -----------------------------------------------------------
  CC-1                  32.96    683.00    683.00       3.905
  CC-2                  30.47    683.00    683.00       3.645
  JK-1                  15.11   1000.00   1000.00       2.151
  JK-2                   0.23   1000.00   1000.00       0.048
  WSC                   99.93    388.65    746.67       9.327
  -----------------------------------------------------------
  System                35.74   3754.65   3366.23      19.077
  
  
  ********************
  Link Flow Summary
  ********************
  
  -----------------------------------------------------------------------------
                                 Maximum  Time of Max   Maximum    Max/    Max/
                                  |Flow|   Occurrence   |Veloc|    Full    Full
  Link                 Type          LPS  days hr:min     m/sec    Flow   Depth
  -----------------------------------------------------------------------------
  1                    CONDUIT    746.67     0  02:30      3.07    0.26    0.35
  WS02001211WS02001212 CONDUIT    202.35     0  03:46      0.54    0.15    0.51
  WS02001212WS02001213 CONDUIT    204.47     0  03:47      1.04    0.32    0.36
  WS02001213WS02003059 CONDUIT    209.55     0  03:47      0.47    0.35    0.67
  WS02003059WS02003060 CONDUIT    216.76     0  03:48      0.67    0.14    0.58
  WS02003060WS02003069 CONDUIT    745.42     0  02:31      1.77    0.29    0.40
  WS02003066WSF200     CONDUIT    533.97     0  02:23      2.74    0.09    0.23
  WS02003067WS02003066 CONDUIT    533.94     0  02:23      1.20    0.17    0.42
  WS02003069WS02003072 CONDUIT    745.18     0  02:29      1.51    0.36    0.45
  WS02003072WS02003073 CONDUIT    744.92     0  02:30      1.59    1.61    0.43
  WS02004138WS02004139 CONDUIT    190.84     0  00:29      2.17    0.04    0.33
  WS02004139WS02001211 CONDUIT    192.93     0  02:43      0.54    0.24    0.47
  WS02004401WS02004402 CONDUIT    543.63     0  02:17      0.97    0.65    0.86
  WS02004402WS02004403 CONDUIT    543.24     0  02:17      0.97    0.78    0.88
  WS02004403WS02004404 CONDUIT    540.62     0  02:17      0.92    0.39    0.93
  WS02004404WS02004405 CONDUIT    540.85     0  02:17      1.08    5.30    0.96
  WS02004405WS02004406 CONDUIT    542.29     0  02:17      0.99    1.07    0.96
  WS02004406WS02004407 CONDUIT    538.06     0  02:18      1.04    0.24    0.63
  WS02004407WS02004409 CONDUIT    536.08     0  02:21      1.52    0.19    0.48
  WS02004409WS02004410 CONDUIT    535.32     0  02:22      0.99    0.69    0.67
  WS02004410WS02004411 CONDUIT    534.94     0  02:22      0.94    0.73    0.68
  WS02004411WS02004412 CONDUIT    534.58     0  02:22      0.92    0.76    0.69
  WS02004412WS02004413 CONDUIT    534.01     0  02:22      0.82    0.36    0.78
  WS02004413WS02003067 CONDUIT    533.85     0  02:22      1.11    0.23    0.59
  WS02006109WS02006110 CONDUIT    587.08     0  02:16      1.17    1.13    1.00
  WS02006110WS02006113 CONDUIT    592.48     0  02:16      1.41    0.54    0.79
  WS02006111WS02006112 CONDUIT    547.70     0  02:16      1.82    0.26    0.67
  WS02006112WS02006115 CONDUIT    561.48     0  02:44      0.79    0.33    0.87
  WS02006113WS02006111 CONDUIT    570.94     0  02:16      2.48    0.68    0.47
  WS02006115WS02006116 CONDUIT    548.04     0  02:16      0.97    0.70    0.76
  WS02006116WS02004401 CONDUIT    546.30     0  02:17      0.98    0.75    0.84
  WS02006228WS02006109 CONDUIT    588.65     0  02:16      1.17    2.57    1.00
  WS02006229WS02006228 CONDUIT    586.06     0  02:16      1.17    1.94    1.00
  WS02006230WS02006229 CONDUIT    580.27     0  02:16      1.51   12.91    1.00
  WS02006231WS02006230 CONDUIT    591.21     0  02:11      1.61    8.97    1.00
  WS02006232WS02006231 CONDUIT    580.00     0  02:06      1.51    1.22    1.00
  WS02006234WS02006232 CONDUIT    579.25     0  02:06      1.51    1.17    1.00
  WS02006235WS02006234 CONDUIT    574.86     0  02:06      1.49    6.07    1.00
  WS02006238WS02006235 CONDUIT    427.75     0  03:25      1.56    0.95    1.00
  WS02006239WS02006238 CONDUIT    427.93     0  03:25      1.11    1.37    1.00
  WS02006240WS02006239 CONDUIT    428.02     0  03:25      1.24    1.35    1.00
  WS02006242WS02006240 CONDUIT    425.55     0  03:25      1.12    1.69    1.00
  WS02006243WS02006242 CONDUIT    425.11     0  03:25      1.39    0.91    1.00
  WS02006245WS02006243 CONDUIT    425.63     0  03:25      1.45    1.26    1.00
  WS02006247WS02006245 CONDUIT    425.32     0  03:25      1.44    3.37    1.00
  WS02006248WS02006247 CONDUIT    426.62     0  03:25      1.45    0.93    1.00
  WS02006249WS02006248 CONDUIT    427.81     0  03:25      1.37    2.34    1.00
  WS02006251WS02006249 CONDUIT    458.97     0  00:00      1.99    1.32    1.00
  WS02006252WS02006251 CONDUIT    407.83     0  02:03     25.11    1.50    1.00
  WS02006256WS02006235 CONDUIT    289.22     0  01:48      4.23    3.06    1.00
  WSF200WS02003060     CONDUIT    534.52     0  02:23      1.76    0.12    0.32
  YS02001580YS02001583 CONDUIT     79.50     0  02:04      0.57    0.31    1.00
  YS02001583YS02001586 CONDUIT    135.58     0  02:03      0.56    0.21    1.00
  YS02001586YS02001590 CONDUIT    318.93     0  02:16      1.26    0.56    1.00
  YS02001590YS02001593 CONDUIT    318.93     0  02:16      1.13    2.00    1.00
  YS02001593YS02001596 CONDUIT    317.98     0  02:16      1.74    0.50    1.00
  YS02001596YS02001600 CONDUIT    318.07     0  02:14      1.24    0.62    1.00
  YS02001600YS02001601 CONDUIT    318.21     0  02:16      1.13    0.55    1.00
  YS02001601YS02001602 CONDUIT    499.27     0  02:03      1.77    1.80    1.00
  YS02001602YS02001605 CONDUIT    498.79     0  02:03      1.76   10.56    1.00
  YS02001605YS02001607 CONDUIT    498.23     0  02:03      1.76    2.73    1.00
  YS02001607YS02001610 CONDUIT    496.90     0  02:03      0.63    0.47    1.00
  YS02001610YS02001613 CONDUIT    498.53     0  02:03      0.63    0.57    1.00
  YS02001613YS02001616 CONDUIT    499.12     0  02:02      0.64    0.43    1.00
  YS02001616YS02001619 CONDUIT    494.18     0  02:03      0.66    0.86    1.00
  YS02001619YS02001622 CONDUIT    913.15     0  02:06      1.17    1.35    1.00
  YS02001622YS02001625 CONDUIT    913.08     0  02:06      1.16    0.49    1.00
  YS02001625YS02001629 CONDUIT    912.45     0  02:06      1.16    0.43    1.00
  YS02001629YS02163301 CONDUIT    911.38     0  02:06      1.16    1.12    1.00
  YS02001633YS02163601 CONDUIT   1302.49     0  02:06      1.66    1.37    1.00
  YS02001641YS02001644 CONDUIT   1300.53     0  02:06      1.66    4.20    1.00
  YS02001644YS02001647 CONDUIT   1641.45     0  02:06      2.13    0.96    1.00
  YS02001647YS02001649 CONDUIT   1650.57     0  02:06      2.27    0.87    1.00
  YS02001649YS02001757 CONDUIT   1800.96     0  02:05      2.34    1.09    1.00
  YS02001652YS02001649 CONDUIT    720.67     0  02:13      0.92    0.36    1.00
  YS02001655YS02001652 CONDUIT    718.90     0  02:13      1.26    0.35    1.00
  YS02001658YS02001655 CONDUIT    717.66     0  02:13      1.84    0.30    1.00
  YS02001661YS02001658 CONDUIT    715.81     0  02:13      2.19    0.28    1.00
  YS02001664YS02001661 CONDUIT    853.54     0  02:13      2.12    0.27    0.71
  YS02001745YS02001748 CONDUIT    514.33     0  02:10      1.99    0.20    0.87
  YS02001748YS02001751 CONDUIT    416.49     0  02:13      1.57    0.21    1.00
  YS02001751YS02001754 CONDUIT    416.31     0  02:13      1.38    0.20    1.00
  YS02001754YS02001757 CONDUIT    416.68     0  02:13      0.53    0.17    1.00
  YS02001757CaochengTiaoxuchi CONDUIT   3018.86     0  02:11      3.84    1.31    1.00
  YS02001759YS02001757 CONDUIT   1231.85     0  02:12      1.57    0.88    1.00
  YS02001762YS02001759 CONDUIT    679.83     0  02:11      0.87    0.78    1.00
  YS02001765YS02001762 CONDUIT    679.28     0  02:11      0.86    0.64    1.00
  YS02001767YS02001765 CONDUIT    678.49     0  02:11      0.86    0.85    1.00
  YS02001770YS02001767 CONDUIT    678.75     0  02:11      0.86    2.69    1.00
  YS02001774YS02001770 CONDUIT    269.46     0  02:07      0.34    0.17    1.00
  YS02001779YS02001774 CONDUIT    273.01     0  02:07      0.35    0.14    1.00
  YS02001783YS02001784 CONDUIT   1157.33     0  02:12      2.30    1.60    1.00
  YS02001784YS02001785 CONDUIT   1158.70     0  02:12      2.31    2.70    1.00
  YS02001786YS02001788 CONDUIT   1158.59     0  02:12      2.47    2.23    0.89
  YS02001788YS02001790 CONDUIT   1168.28     0  02:12      2.71    0.86    0.83
  YS02001790YS02001791 CONDUIT   1275.89     0  02:12      3.41    1.39    0.70
  YS02001791YS02001793 CONDUIT   1253.78     0  02:12      6.70    0.54    0.44
  YS02001793JiankangQianchi CONDUIT   1234.33     0  02:10      2.48    0.10    0.65
  YS02001882YS02001884 CONDUIT     27.61     0  02:06      0.13    0.03    1.00
  YS02001884YS02001887 CONDUIT     64.79     0  02:06      0.09    0.09    1.00
  YS02001887YS02001890 CONDUIT    619.59     0  02:13      0.79    1.06    1.00
  YS02001890YS02001895 CONDUIT    516.51     0  02:15      0.66    0.24    1.00
  YS02001895YS02001898 CONDUIT    516.68     0  02:15      0.66    0.90    1.00
  YS02001898YS02001901 CONDUIT    516.84     0  02:15      0.66    0.33    1.00
  YS02001901YS02001904 CONDUIT    516.56     0  02:15      0.66    0.80    1.00
  YS02001904YS02001907 CONDUIT    516.99     0  02:15      0.66    0.18    1.00
  YS02001907YS02006553 CONDUIT    793.17     0  02:25      0.88    0.93    1.00
  YS02001910YS02001907 CONDUIT   1069.32     0  02:14      1.36    0.60    1.00
  YS02001915YS02001910 CONDUIT   1069.19     0  02:14      1.36    0.53    1.00
  YS02001918YS02001915 CONDUIT    442.04     0  02:10      0.56    0.24    1.00
  YS02001920YS02001918 CONDUIT    441.41     0  02:10      0.64    0.43    1.00
  YS02001923YS02001920 CONDUIT    437.89     0  02:10      0.71    0.20    1.00
  YS02001926YS02001923 CONDUIT    391.62     0  02:10      0.96    0.56    1.00
  YS02001929YS02001926 CONDUIT    385.26     0  02:10      1.12    0.18    1.00
  YS02006553YS02006556 CONDUIT    793.39     0  02:25      1.01    0.68    1.00
  YS02006556YS02006558 CONDUIT    794.46     0  02:25      1.01    0.63    1.00
  YS02006558YS02006561 CONDUIT   1157.39     0  02:12      4.09    2.56    1.00
  YS02006561YS02001783 CONDUIT   1157.61     0  02:12      2.30    0.60    1.00
  YS02163301YS02001633 CONDUIT    911.43     0  02:06      1.16    0.86    1.00
  YS02163601YS02164001 CONDUIT   1301.12     0  02:06      1.66    1.15    1.00
  YS02164001YS02001641 CONDUIT   1299.82     0  02:06      1.65    1.77    1.00
  CC-R1                PUMP       683.00     0  00:00              1.00
  CC-R2                PUMP       683.00     0  00:00              1.00
  CC-S1                PUMP       200.00     0  00:00              1.00
  CC-S2                PUMP       200.00     0  00:00              1.00
  JK-R1                PUMP      1000.00     0  00:00              1.00
  JK-R2                PUMP      1000.00     0  00:00              1.00
  JK-S                 PUMP       300.00     0  00:00              1.00
  XR-1                 PUMP        95.00     0  00:00              1.00
  XR-2                 PUMP        95.00     0  00:00              1.00
  XR-3                 PUMP        95.00     0  00:00              1.00
  XR-4                 PUMP        95.00     0  00:00              1.00
  
  
  ***************************
  Flow Classification Summary
  ***************************
  
  -------------------------------------------------------------------------------------
                      Adjusted    ---------- Fraction of Time in Flow Class ---------- 
                       /Actual         Up    Down  Sub   Sup   Up    Down  Norm  Inlet 
  Conduit               Length    Dry  Dry   Dry   Crit  Crit  Crit  Crit  Ltd   Ctrl  
  -------------------------------------------------------------------------------------
  1                       1.00   0.00  0.00  0.00  0.00  1.00  0.00  0.00  0.19  0.00
  WS02001211WS02001212    1.00   0.00  0.02  0.00  0.98  0.00  0.00  0.00  0.00  0.00
  WS02001212WS02001213    1.00   0.02  0.00  0.00  0.21  0.00  0.76  0.00  0.00  0.00
  WS02001213WS02003059    1.00   0.00  0.01  0.00  0.99  0.00  0.00  0.00  0.00  0.00
  WS02003059WS02003060    1.00   0.00  0.00  0.00  1.00  0.00  0.00  0.00  0.03  0.00
  WS02003060WS02003069    1.00   0.00  0.00  0.00  0.98  0.02  0.00  0.00  0.65  0.00
  WS02003066WSF200        1.00   0.13  0.00  0.00  0.00  0.87  0.00  0.00  0.75  0.00
  WS02003067WS02003066    1.00   0.10  0.02  0.00  0.88  0.00  0.00  0.00  0.00  0.00
  WS02003069WS02003072    1.00   0.00  0.00  0.00  1.00  0.00  0.00  0.00  0.76  0.00
  WS02003072WS02003073    1.00   0.00  0.00  0.00  0.00  0.00  0.00  1.00  0.00  0.00
  WS02004138WS02004139    1.00   0.00  0.00  0.00  0.97  0.01  0.00  0.02  0.98  0.00
  WS02004139WS02001211    1.00   0.00  0.00  0.00  0.99  0.00  0.00  0.00  0.00  0.00
  WS02004401WS02004402    1.00   0.02  0.00  0.00  0.98  0.00  0.00  0.00  0.00  0.00
  WS02004402WS02004403    1.00   0.02  0.00  0.00  0.97  0.00  0.00  0.00  0.00  0.00
  WS02004403WS02004404    1.00   0.00  0.03  0.00  0.97  0.00  0.00  0.00  0.00  0.00
  WS02004404WS02004405    1.00   0.00  0.00  0.00  1.00  0.00  0.00  0.00  0.00  0.00
  WS02004405WS02004406    1.00   0.00  0.00  0.00  1.00  0.00  0.00  0.00  0.00  0.00
  WS02004406WS02004407    1.00   0.00  0.05  0.00  0.95  0.00  0.00  0.00  0.00  0.00
  WS02004407WS02004409    1.00   0.05  0.00  0.00  0.94  0.01  0.00  0.00  0.94  0.00
  WS02004409WS02004410    1.00   0.05  0.00  0.00  0.95  0.00  0.00  0.00  0.03  0.00
  WS02004410WS02004411    1.00   0.05  0.00  0.00  0.95  0.00  0.00  0.00  0.01  0.00
  WS02004411WS02004412    1.00   0.05  0.00  0.00  0.95  0.00  0.00  0.00  0.00  0.00
  WS02004412WS02004413    1.00   0.05  0.00  0.00  0.94  0.00  0.00  0.00  0.01  0.00
  WS02004413WS02003067    1.00   0.06  0.04  0.00  0.00  0.00  0.90  0.00  0.00  0.00
  WS02006109WS02006110    1.00   0.00  0.01  0.00  0.98  0.00  0.01  0.00  0.00  0.00
  WS02006110WS02006113    1.00   0.01  0.01  0.00  0.98  0.00  0.00  0.00  0.00  0.00
  WS02006111WS02006112    1.00   0.02  0.00  0.00  0.98  0.00  0.00  0.00  0.98  0.00
  WS02006112WS02006115    1.00   0.02  0.00  0.00  0.97  0.00  0.00  0.00  0.00  0.00
  WS02006113WS02006111    1.00   0.02  0.00  0.00  0.00  0.98  0.00  0.00  0.09  0.00
  WS02006115WS02006116    1.00   0.02  0.00  0.00  0.97  0.00  0.00  0.01  0.00  0.00
  WS02006116WS02004401    1.00   0.02  0.00  0.00  0.98  0.00  0.00  0.00  0.00  0.00
  WS02006228WS02006109    1.00   0.00  0.00  0.00  1.00  0.00  0.00  0.00  0.00  0.00
  WS02006229WS02006228    1.00   0.00  0.00  0.00  0.99  0.00  0.00  0.01  0.00  0.00
  WS02006230WS02006229    1.00   0.00  0.00  0.00  0.99  0.00  0.00  0.01  0.02  0.00
  WS02006231WS02006230    1.00   0.00  0.00  0.00  0.21  0.00  0.79  0.00  0.00  0.00
  WS02006232WS02006231    1.00   0.00  0.00  0.00  0.98  0.00  0.01  0.00  0.00  0.00
  WS02006234WS02006232    1.00   0.00  0.00  0.00  1.00  0.00  0.00  0.00  0.25  0.00
  WS02006235WS02006234    1.00   0.00  0.00  0.00  0.69  0.00  0.31  0.00  0.00  0.00
  WS02006238WS02006235    1.00   0.00  0.00  0.00  1.00  0.00  0.00  0.00  0.00  0.00
  WS02006239WS02006238    1.00   0.00  0.00  0.00  1.00  0.00  0.00  0.00  0.42  0.00
  WS02006240WS02006239    1.00   0.00  0.00  0.00  0.46  0.00  0.00  0.53  0.03  0.00
  WS02006242WS02006240    1.00   0.00  0.00  0.00  0.99  0.00  0.00  0.00  0.00  0.00
  WS02006243WS02006242    1.00   0.00  0.00  0.00  0.99  0.00  0.00  0.01  0.72  0.00
  WS02006245WS02006243    1.00   0.00  0.00  0.00  0.51  0.00  0.00  0.49  0.02  0.00
  WS02006247WS02006245    1.00   0.00  0.00  0.00  0.98  0.00  0.00  0.02  0.00  0.00
  WS02006248WS02006247    1.00   0.00  0.00  0.00  0.99  0.00  0.00  0.01  0.28  0.00
  WS02006249WS02006248    1.00   0.00  0.00  0.00  0.32  0.00  0.68  0.00  0.00  0.00
  WS02006251WS02006249    1.00   0.00  0.00  0.00  0.99  0.01  0.00  0.00  0.72  0.00
  WS02006252WS02006251    1.00   0.00  0.71  0.00  0.12  0.00  0.17  0.00  0.00  0.00
  WS02006256WS02006235    1.00   0.00  0.00  0.00  0.99  0.01  0.00  0.00  0.00  0.00
  WSF200WS02003060        1.00   0.00  0.13  0.00  0.68  0.20  0.00  0.00  0.66  0.00
  YS02001580YS02001583    1.00   0.25  0.57  0.00  0.18  0.00  0.00  0.00  0.66  0.00
  YS02001583YS02001586    1.00   0.48  0.29  0.00  0.23  0.00  0.00  0.00  0.66  0.00
  YS02001586YS02001590    1.00   0.13  0.00  0.00  0.41  0.04  0.00  0.43  0.35  0.00
  YS02001590YS02001593    1.00   0.13  0.01  0.00  0.10  0.00  0.76  0.00  0.00  0.00
  YS02001593YS02001596    1.00   0.13  0.00  0.00  0.12  0.01  0.00  0.73  0.02  0.00
  YS02001596YS02001600    1.00   0.13  0.00  0.00  0.19  0.01  0.00  0.66  0.05  0.00
  YS02001600YS02001601    1.00   0.13  0.01  0.00  0.86  0.00  0.00  0.00  0.61  0.00
  YS02001601YS02001602    1.00   0.13  0.01  0.00  0.87  0.00  0.00  0.00  0.00  0.00
  YS02001602YS02001605    1.00   0.13  0.00  0.00  0.87  0.00  0.00  0.00  0.00  0.00
  YS02001605YS02001607    1.00   0.14  0.00  0.00  0.86  0.00  0.00  0.00  0.00  0.00
  YS02001607YS02001610    1.00   0.13  0.01  0.00  0.86  0.00  0.00  0.00  0.01  0.00
  YS02001610YS02001613    1.00   0.13  0.00  0.00  0.87  0.00  0.00  0.00  0.00  0.00
  YS02001613YS02001616    1.00   0.13  0.00  0.00  0.87  0.00  0.00  0.00  0.00  0.00
  YS02001616YS02001619    1.00   0.13  0.00  0.00  0.87  0.00  0.00  0.00  0.00  0.00
  YS02001619YS02001622    1.00   0.13  0.00  0.00  0.87  0.00  0.00  0.00  0.34  0.00
  YS02001622YS02001625    1.00   0.13  0.00  0.00  0.87  0.00  0.00  0.00  0.04  0.00
  YS02001625YS02001629    1.00   0.13  0.05  0.00  0.15  0.00  0.67  0.00  0.00  0.00
  YS02001629YS02163301    1.00   0.15  0.01  0.00  0.84  0.00  0.00  0.00  0.00  0.00
  YS02001633YS02163601    1.00   0.00  0.01  0.00  0.99  0.00  0.00  0.00  0.15  0.00
  YS02001641YS02001644    1.00   0.00  0.01  0.00  0.99  0.00  0.00  0.00  0.00  0.00
  YS02001644YS02001647    1.00   0.00  0.17  0.00  0.83  0.00  0.00  0.00  0.00  0.00
  YS02001647YS02001649    1.00   0.00  0.17  0.00  0.56  0.27  0.00  0.00  0.58  0.00
  YS02001649YS02001757    1.00   0.00  0.00  0.00  0.71  0.29  0.00  0.00  0.51  0.00
  YS02001652YS02001649    1.00   0.00  0.00  0.00  0.97  0.03  0.00  0.00  0.76  0.00
  YS02001655YS02001652    1.00   0.00  0.00  0.00  0.17  0.01  0.00  0.82  0.05  0.00
  YS02001658YS02001655    1.00   0.00  0.14  0.00  0.67  0.19  0.00  0.00  0.70  0.00
  YS02001661YS02001658    1.00   0.14  0.00  0.00  0.53  0.33  0.00  0.00  0.72  0.00
  YS02001664YS02001661    1.00   0.13  0.00  0.00  0.77  0.10  0.00  0.00  0.86  0.00
  YS02001745YS02001748    1.00   0.00  0.00  0.00  0.09  0.01  0.00  0.91  0.04  0.00
  YS02001748YS02001751    1.00   0.00  0.00  0.00  0.83  0.17  0.00  0.00  0.76  0.00
  YS02001751YS02001754    1.00   0.00  0.00  0.00  0.15  0.01  0.00  0.85  0.03  0.00
  YS02001754YS02001757    1.00   0.00  0.00  0.00  1.00  0.00  0.00  0.00  0.84  0.00
  YS02001757CaochengTiaoxuchi    1.00   0.00  0.00  0.00  1.00  0.00  0.00  0.00  0.84  0.00
  YS02001759YS02001757    1.00   0.00  0.00  0.00  1.00  0.00  0.00  0.00  0.62  0.00
  YS02001762YS02001759    1.00   0.00  0.00  0.00  1.00  0.00  0.00  0.00  0.04  0.00
  YS02001765YS02001762    1.00   0.00  0.00  0.00  1.00  0.00  0.00  0.00  0.73  0.00
  YS02001767YS02001765    1.00   0.00  0.00  0.00  1.00  0.00  0.00  0.00  0.00  0.00
  YS02001770YS02001767    1.00   0.00  0.00  0.00  1.00  0.00  0.00  0.00  0.00  0.00
  YS02001774YS02001770    1.00   0.00  0.13  0.00  0.61  0.00  0.26  0.00  0.03  0.00
  YS02001779YS02001774    1.00   0.00  0.00  0.00  1.00  0.00  0.00  0.00  0.77  0.00
  YS02001783YS02001784    1.00   0.00  0.18  0.00  0.82  0.00  0.00  0.00  0.57  0.00
  YS02001784YS02001785    1.00   0.00  0.00  0.00  1.00  0.00  0.00  0.00  0.17  0.00
  YS02001786YS02001788    1.00   0.00  0.00  0.00  0.79  0.21  0.00  0.00  0.00  0.00
  YS02001788YS02001790    1.00   0.00  0.00  0.00  0.20  0.80  0.00  0.00  0.81  0.00
  YS02001790YS02001791    1.00   0.00  0.00  0.00  0.01  0.99  0.00  0.00  0.16  0.00
  YS02001791YS02001793    1.00   0.00  0.00  0.00  0.00  1.00  0.00  0.00  0.01  0.00
  YS02001793JiankangQianchi    1.00   0.00  0.00  0.00  0.99  0.00  0.00  0.00  0.96  0.00
  YS02001882YS02001884    1.00   0.15  0.01  0.00  0.84  0.00  0.00  0.00  0.00  0.00
  YS02001884YS02001887    1.00   0.06  0.05  0.00  0.89  0.00  0.00  0.00  0.00  0.00
  YS02001887YS02001890    1.00   0.00  0.00  0.00  0.97  0.00  0.03  0.00  0.00  0.00
  YS02001890YS02001895    1.00   0.00  0.16  0.00  0.84  0.00  0.00  0.00  0.00  0.00
  YS02001895YS02001898    1.00   0.16  0.00  0.00  0.82  0.00  0.02  0.00  0.00  0.00
  YS02001898YS02001901    1.00   0.16  0.00  0.00  0.84  0.00  0.00  0.00  0.01  0.00
  YS02001901YS02001904    1.00   0.16  0.00  0.00  0.84  0.00  0.00  0.00  0.00  0.00
  YS02001904YS02001907    1.00   0.00  0.16  0.00  0.84  0.00  0.00  0.00  0.00  0.00
  YS02001907YS02006553    1.00   0.00  0.02  0.00  0.98  0.00  0.00  0.00  0.00  0.00
  YS02001910YS02001907    1.00   0.00  0.00  0.00  0.97  0.00  0.00  0.03  0.12  0.00
  YS02001915YS02001910    1.00   0.00  0.00  0.00  0.97  0.03  0.00  0.00  0.15  0.00
  YS02001918YS02001915    1.00   0.00  0.01  0.00  0.98  0.02  0.00  0.00  0.76  0.00
  YS02001920YS02001918    1.00   0.00  0.01  0.00  0.99  0.00  0.00  0.00  0.00  0.00
  YS02001923YS02001920    1.00   0.00  0.00  0.00  1.00  0.00  0.00  0.00  0.94  0.00
  YS02001926YS02001923    1.00   0.00  0.07  0.00  0.05  0.00  0.88  0.00  0.00  0.00
  YS02001929YS02001926    1.00   0.00  0.13  0.00  0.87  0.00  0.00  0.00  0.83  0.00
  YS02006553YS02006556    1.00   0.01  0.00  0.00  0.99  0.00  0.00  0.00  0.03  0.00
  YS02006556YS02006558    1.00   0.00  0.00  0.00  1.00  0.00  0.00  0.00  0.00  0.00
  YS02006558YS02006561    1.00   0.18  0.00  0.00  0.04  0.78  0.00  0.00  0.17  0.00
  YS02006561YS02001783    1.00   0.18  0.00  0.00  0.07  0.75  0.00  0.00  0.70  0.00
  YS02163301YS02001633    1.00   0.00  0.15  0.00  0.85  0.00  0.00  0.00  0.00  0.00
  YS02163601YS02164001    1.00   0.00  0.08  0.00  0.92  0.00  0.00  0.00  0.00  0.00
  YS02164001YS02001641    1.00   0.01  0.07  0.00  0.92  0.00  0.00  0.00  0.05  0.00
  
  
  *************************
  Conduit Surcharge Summary
  *************************
  
  ----------------------------------------------------------------------------
                                                           Hours        Hours 
                         --------- Hours Full --------   Above Full   Capacity
  Conduit                Both Ends  Upstream  Dnstream   Normal Flow   Limited
  ----------------------------------------------------------------------------
  WS02003072WS02003073        0.01      0.01      0.01      1.70         0.01
  WS02004404WS02004405        0.01      0.01      0.01      1.97         0.01
  WS02004405WS02004406        0.01      0.01      0.01      0.69         0.01
  WS02006109WS02006110        0.61      0.61      1.57      0.80         0.01
  WS02006110WS02006113        0.01      0.01      1.55      0.01         0.01
  WS02006111WS02006112        0.01      0.01      1.67      0.01         0.01
  WS02006112WS02006115        0.01      0.01      0.79      0.01         0.01
  WS02006228WS02006109        1.54      1.57      1.54      1.78         1.53
  WS02006229WS02006228        1.53      1.54      1.53      1.70         1.51
  WS02006230WS02006229        1.64      1.67      1.64      2.75         1.64
  WS02006231WS02006230        0.62      0.62      0.91      2.28         0.01
  WS02006232WS02006231        0.84      0.84      1.57      0.93         0.01
  WS02006234WS02006232        1.45      1.45      1.57      0.91         0.89
  WS02006235WS02006234        1.23      1.24      1.46      2.15         0.03
  WS02006238WS02006235        1.48      1.48      1.58      0.01         0.01
  WS02006239WS02006238        1.52      1.55      1.53      1.60         1.30
  WS02006240WS02006239        1.49      1.53      1.49      1.60         1.20
  WS02006242WS02006240        1.53      1.53      1.59      1.64         0.01
  WS02006243WS02006242        1.54      1.54      1.58      0.01         0.07
  WS02006245WS02006243        1.52      1.54      1.52      0.90         0.88
  WS02006247WS02006245        1.52      1.55      1.52      1.86         1.50
  WS02006248WS02006247        1.53      1.53      1.54      0.01         0.08
  WS02006249WS02006248        1.52      1.52      1.54      1.84         0.01
  WS02006251WS02006249        1.54      1.54      1.54      1.63         1.44
  WS02006252WS02006251        1.71      1.71      1.71      1.71         0.01
  WS02006256WS02006235        2.14      2.20      4.59      1.28         0.01
  YS02001580YS02001583        0.51      0.51      0.56      0.01         0.01
  YS02001583YS02001586        0.52      0.52      0.64      0.01         0.01
  YS02001586YS02001590        0.64      0.64      0.71      0.01         0.01
  YS02001590YS02001593        0.72      0.72      0.73      0.74         0.01
  YS02001593YS02001596        0.73      0.73      0.83      0.01         0.01
  YS02001596YS02001600        0.88      0.88      1.00      0.01         0.01
  YS02001600YS02001601        1.06      1.06      1.36      0.01         0.01
  YS02001601YS02001602        1.25      1.25      1.40      0.99         0.01
  YS02001602YS02001605        1.20      1.20      1.25      2.18         0.01
  YS02001605YS02001607        1.15      1.20      1.15      1.33         1.15
  YS02001607YS02001610        0.70      0.70      0.72      0.01         0.01
  YS02001610YS02001613        0.69      0.69      0.72      0.01         0.01
  YS02001613YS02001616        0.65      0.65      0.69      0.01         0.01
  YS02001616YS02001619        0.64      0.64      0.65      0.01         0.01
  YS02001619YS02001622        0.64      0.64      0.64      0.71         0.60
  YS02001622YS02001625        0.64      0.64      0.82      0.01         0.01
  YS02001625YS02001629        0.59      0.59      0.82      0.01         0.01
  YS02001629YS02163301        0.82      0.82      0.83      0.06         0.13
  YS02001633YS02163601        0.85      0.85      0.88      0.30         0.29
  YS02001641YS02001644        0.76      0.79      0.76      1.44         0.75
  YS02001644YS02001647        0.56      0.56      0.76      0.01         0.01
  YS02001647YS02001649        0.56      0.56      0.68      0.01         0.01
  YS02001649YS02001757        0.68      0.68      0.75      0.06         0.04
  YS02001652YS02001649        0.52      0.52      0.68      0.01         0.01
  YS02001655YS02001652        0.35      0.35      0.49      0.01         0.01
  YS02001658YS02001655        0.17      0.17      0.35      0.01         0.01
  YS02001661YS02001658        0.01      0.01      0.17      0.01         0.01
  YS02001664YS02001661        0.01      0.01      0.02      0.01         0.01
  YS02001745YS02001748        0.01      0.01      0.11      0.01         0.01
  YS02001748YS02001751        0.15      0.15      0.24      0.01         0.01
  YS02001751YS02001754        0.24      0.24      0.41      0.01         0.01
  YS02001754YS02001757        0.45      0.45      0.75      0.01         0.01
  YS02001757CaochengTiaoxuchi        0.75      0.75      1.34      0.26         0.26
  YS02001759YS02001757        0.65      0.65      0.75      0.01         0.01
  YS02001762YS02001759        0.62      0.62      0.65      0.01         0.02
  YS02001765YS02001762        0.58      0.58      0.62      0.01         0.01
  YS02001767YS02001765        0.55      0.55      0.58      0.01         0.02
  YS02001770YS02001767        0.54      0.54      0.55      0.36         0.36
  YS02001774YS02001770        0.52      0.52      0.60      0.01         0.01
  YS02001779YS02001774        0.40      0.40      0.60      0.01         0.01
  YS02001783YS02001784        0.40      0.42      0.40      0.58         0.40
  YS02001784YS02001785        0.29      0.40      0.29      0.81         0.29
  YS02001786YS02001788        0.01      0.29      0.01      0.69         0.01
  YS02001790YS02001791        0.01      0.01      0.01      0.39         0.01
  YS02001793JiankangQianchi        0.01      0.01      7.70      0.01         0.01
  YS02001882YS02001884        0.37      0.37      0.38      0.01         0.01
  YS02001884YS02001887        0.40      0.40      0.41      0.01         0.01
  YS02001887YS02001890        0.43      0.43      0.44      0.04         0.01
  YS02001890YS02001895        0.36      0.36      0.46      0.01         0.01
  YS02001895YS02001898        0.35      0.35      0.36      0.01         0.01
  YS02001898YS02001901        0.36      0.36      0.40      0.01         0.01
  YS02001901YS02001904        0.39      0.39      0.40      0.01         0.01
  YS02001904YS02001907        0.39      0.39      0.67      0.01         0.01
  YS02001907YS02006553        0.82      0.82      0.89      0.01         0.01
  YS02001910YS02001907        0.45      0.45      0.65      0.01         0.01
  YS02001915YS02001910        0.36      0.36      0.45      0.01         0.01
  YS02001918YS02001915        0.28      0.28      0.36      0.01         0.01
  YS02001920YS02001918        0.28      0.28      0.30      0.01         0.01
  YS02001923YS02001920        0.24      0.24      0.30      0.01         0.01
  YS02001926YS02001923        0.01      0.01      0.03      0.01         0.01
  YS02001929YS02001926        0.01      0.01      0.03      0.01         0.01
  YS02006553YS02006556        0.54      0.54      0.66      0.01         0.01
  YS02006556YS02006558        0.60      0.60      0.68      0.01         0.01
  YS02006558YS02006561        0.31      0.53      0.31      0.76         0.31
  YS02006561YS02001783        0.25      0.25      0.42      0.01         0.01
  YS02163301YS02001633        0.83      0.83      0.87      0.01         0.01
  YS02163601YS02164001        0.79      0.79      0.88      0.08         0.01
  YS02164001YS02001641        0.79      0.79      0.79      0.65         0.57
  
  
  ***************
  Pumping Summary
  ***************
  
  ---------------------------------------------------------------------------------------------------------
                                                  Min       Avg       Max     Total     Power    % Time Off
                        Percent   Number of      Flow      Flow      Flow    Volume     Usage    Pump Curve
  Pump                 Utilized   Start-Ups       LPS       LPS       LPS  10^6 ltr     Kw-hr    Low   High
  ---------------------------------------------------------------------------------------------------------
  CC-R1                   19.83          15      0.00    683.00    683.00     3.901     72.29    0.0   23.5
  CC-R2                   18.51          15      0.00    683.00    683.00     3.642     67.49    0.0   25.1
  CC-S1                   23.79          15      0.00    200.00    200.00     1.370      7.82    0.0    0.0
  CC-S2                   21.37          15      0.00    200.00    200.00     1.231      6.99    0.0    0.0
  JK-R1                    7.46          13      0.00   1000.00   1000.00     2.149     25.77    0.0    0.0
  JK-R2                    0.16           1      0.00   1000.00   1000.00     0.047      0.36    0.0    0.0
  JK-S                    15.89          26      0.00    300.00    300.00     1.372     17.83    0.0    0.0
  XR-1                    97.91           2      0.00     95.00     95.00     2.679      9.60    0.0    0.0
  XR-2                    93.94           2      0.00     95.00     95.00     2.570      8.76    0.0    0.0
  XR-3                     0.00           1      0.00     95.00     95.00     0.000      0.00    0.0    0.0
  XR-4                     0.00           1      0.00     95.00     95.00     0.000      0.00    0.0    0.0
  

  Analysis begun on:  Wed Nov  5 16:31:50 2025
  Analysis ended on:  Wed Nov  5 16:31:52 2025
  Total elapsed time: 00:00:02