
  EPA STORM WATER MANAGEMENT MODEL - VERSION 5.2 (Build 5.2.4)
  PYSWMM TOOLKIT API - VERSION v1.0 (2023-11-27)
  ------------------------------------------------------------

  WARNING 04: minimum elevation drop used for Conduit WS02004404WS02004405
  WARNING 03: negative offset ignored for Link YS02001904YS02001907
  
  ****************
  Analysis Options
  ****************
  Flow Units ............... LPS
  Process Models:
    Rainfall/Runoff ........ YES
    RDII ................... NO
    Snowmelt ............... NO
    Groundwater ............ NO
    Flow Routing ........... YES
    Ponding Allowed ........ NO
    Water Quality .......... NO
  Infiltration Method ...... HORTON
  Flow Routing Method ...... DYNWAVE
  Surcharge Method ......... EXTRAN
  Starting Date ............ 08/28/2015 08:00:00
  Ending Date .............. 08/28/2015 16:00:00
  Antecedent Dry Days ...... 8.0
  Report Time Step ......... 00:01:00
  Wet Time Step ............ 00:01:00
  Dry Time Step ............ 00:01:00
  Routing Time Step ........ 30.00 sec
  Variable Time Step ....... YES
  Maximum Trials ........... 8
  Number of Threads ........ 4
  Head Tolerance ........... 0.001500 m
  
  
  **************************        Volume         Depth
  Runoff Quantity Continuity     hectare-m            mm
  **************************     ---------       -------
  Initial LID Storage ......         0.049         1.488
  Total Precipitation ......         1.995        60.137
  Evaporation Loss .........         0.000         0.000
  Infiltration Loss ........         0.078         2.363
  Surface Runoff ...........         1.470        44.328
  Final Storage ............         0.496        14.941
  Continuity Error (%) .....        -0.012
  
  
  **************************        Volume        Volume
  Flow Routing Continuity        hectare-m      10^6 ltr
  **************************     ---------     ---------
  Dry Weather Inflow .......         0.602         6.020
  Wet Weather Inflow .......         1.470        14.697
  Groundwater Inflow .......         0.000         0.000
  RDII Inflow ..............         0.000         0.000
  External Inflow ..........         0.105         1.045
  External Outflow .........         2.011        20.107
  Flooding Loss ............         0.136         1.361
  Evaporation Loss .........         0.000         0.000
  Exfiltration Loss ........         0.000         0.000
  Initial Stored Volume ....         0.303         3.031
  Final Stored Volume ......         0.337         3.371
  Continuity Error (%) .....        -0.186
  
  
  *************************
  Highest Continuity Errors
  *************************
  Node YS02001884 (5.26%)
  Node YS02001583 (-2.76%)
  Node YS02001774 (1.85%)
  
  
  ***************************
  Time-Step Critical Elements
  ***************************
  Link WS02004404WS02004405 (36.58%)
  Link WS02006238WS02006235 (23.66%)
  Link YS02001791YS02001793 (7.14%)
  Link YS02006556YS02006558 (6.38%)
  Link WS02006252WS02006251 (6.06%)
  
  
  ********************************
  Highest Flow Instability Indexes
  ********************************
  Link WS02006113WS02006111 (29)
  Link WS02006111WS02006112 (21)
  Link WS02006110WS02006113 (19)
  Link YS02001790YS02001791 (17)
  Link WS02006238WS02006235 (16)
  
  
  *********************************
  Most Frequent Nonconverging Nodes
  *********************************
  Node CC-1 (7.25%)
  Node CC-2 (7.25%)
  Node JK-1 (7.25%)
  Node JK-2 (7.25%)
  Node WSC (7.25%)
  
  
  *************************
  Routing Time Step Summary
  *************************
  Minimum Time Step           :     0.02 sec
  Average Time Step           :     3.29 sec
  Maximum Time Step           :     7.04 sec
  % of Time in Steady State   :     0.00
  Average Iterations per Step :     2.89
  % of Steps Not Converging   :     7.25
  Time Step Frequencies       :
     30.000 - 13.228 sec      :     0.00 %
     13.228 -  5.833 sec      :    21.09 %
      5.833 -  2.572 sec      :    28.43 %
      2.572 -  1.134 sec      :    36.92 %
      1.134 -  0.500 sec      :    13.56 %
  
  
  ***************************
  Subcatchment Runoff Summary
  ***************************
  
  ------------------------------------------------------------------------------------------------------------------------------
                            Total      Total      Total      Total     Imperv       Perv      Total       Total     Peak  Runoff
                           Precip      Runon       Evap      Infil     Runoff     Runoff     Runoff      Runoff   Runoff   Coeff
  Subcatchment                 mm         mm         mm         mm         mm         mm         mm    10^6 ltr      LPS
  ------------------------------------------------------------------------------------------------------------------------------
  sub60                     60.14       0.00       0.00       1.43      39.92       4.14      44.05        0.58   139.59   0.733
  sub61                     60.14       0.00       0.00       2.20      39.88       6.16      46.04        0.84   204.39   0.766
  sub62                     60.14       0.00       0.00       0.97      42.51       2.81      45.32        1.24   296.44   0.754
  sub63                     60.14       0.00       0.00       3.99      34.16      10.28      44.44        1.01   240.43   0.739
  sub64                     60.14       0.00       0.00       1.92      38.89       5.11      44.00        1.06   250.91   0.732
  sub65                     60.14       0.00       0.00       1.76      41.97       4.66      46.63        1.28   302.16   0.775
  sub66                     60.14       0.00       0.00       4.55      33.02       9.28      42.30        1.97   423.04   0.703
  sub67                     60.14       0.00       0.00       0.97      43.59       2.91      46.50        0.86   207.88   0.773
  sub68                     60.14       0.00       0.00       1.69      38.49       4.73      43.22        1.19   286.40   0.719
  sub69                     60.14       0.00       0.00       1.54      40.43       5.60      46.03        1.70   393.07   0.765
  sub70                     60.14       0.00       0.00       4.97      32.38      11.77      44.15        1.28   256.81   0.734
  sub71                     60.14       0.00       0.00       0.90      38.62       2.54      41.16        1.08   254.91   0.684
  sub72                     60.14       0.00       0.00       0.85      41.71       2.36      44.07        0.61   140.26   0.733
  

  ***********************
  LID Performance Summary
  ***********************

  --------------------------------------------------------------------------------------------------------------------
                                         Total      Evap     Infil   Surface    Drain    Initial     Final  Continuity
                                        Inflow      Loss      Loss   Outflow   Outflow   Storage   Storage       Error
  Subcatchment      LID Control             mm        mm        mm        mm        mm        mm        mm           %
  --------------------------------------------------------------------------------------------------------------------
  sub60             GreenRoof            60.14      0.00      0.00      0.00      0.00      7.05     67.19        0.00
  sub61             GreenRoof            60.14      0.00      0.00      0.00      0.00      7.05     67.19        0.00
  sub62             GreenRoof            60.14      0.00      0.00      0.00      0.00      7.05     67.19        0.00
  sub63             GreenRoof            60.14      0.00      0.00      0.00      0.00      7.05     67.19        0.00
  sub64             GreenRoof            60.14      0.00      0.00      0.00      0.00      7.05     67.19        0.00
  sub65             GreenRoof            60.14      0.00      0.00      0.00      0.00      7.05     67.19        0.00
  sub66             GreenRoof            60.14      0.00      0.00      0.00      0.00      7.05     67.19        0.00
  sub67             GreenRoof            60.14      0.00      0.00      0.00      0.00      7.05     67.19        0.00
  sub68             GreenRoof            60.14      0.00      0.00      0.00      0.00      7.05     67.19        0.00
  sub69             GreenRoof            60.14      0.00      0.00      0.00      0.00      7.05     67.19        0.00
  sub70             GreenRoof            60.14      0.00      0.00      0.00      0.00      7.05     67.19        0.00
  sub71             GreenRoof            60.14      0.00      0.00      0.00      0.00      7.05     67.19        0.00
  sub72             GreenRoof            60.14      0.00      0.00      0.00      0.00      7.05     67.19        0.00
  
  ******************
  Node Depth Summary
  ******************
  
  ---------------------------------------------------------------------------------
                                 Average  Maximum  Maximum  Time of Max    Reported
                                   Depth    Depth      HGL   Occurrence   Max Depth
  Node                 Type       Meters   Meters   Meters  days hr:min      Meters
  ---------------------------------------------------------------------------------
  WS02001211           JUNCTION     0.60     0.64     5.48     0  02:20        0.64
  WS02001212           JUNCTION     0.34     0.38     5.45     0  02:19        0.38
  WS02001213           JUNCTION     0.54     0.65     5.41     0  02:19        0.65
  WS02003059           JUNCTION     0.60     0.72     5.40     0  02:18        0.72
  WS02003060           JUNCTION     0.32     0.45     5.39     0  02:17        0.45
  WS02003066           JUNCTION     0.17     0.30     5.85     0  02:17        0.30
  WS02003067           JUNCTION     0.46     0.70     6.02     0  02:16        0.70
  WS02003069           JUNCTION     0.35     0.51     5.10     0  02:18        0.51
  WS02003072           JUNCTION     0.42     0.58     4.95     0  02:19        0.58
  WS02003073           JUNCTION     0.24     0.35     4.41     0  02:19        0.35
  WS02004138           JUNCTION     0.13     0.14     7.39     0  00:29        0.14
  WS02004139           JUNCTION     0.54     0.58     5.49     0  02:21        0.58
  WS02004401           JUNCTION     0.55     0.85     6.85     0  02:15        0.85
  WS02004402           JUNCTION     0.58     0.88     6.84     0  02:15        0.88
  WS02004403           JUNCTION     0.61     0.89     6.82     0  02:15        0.89
  WS02004404           JUNCTION     0.68     0.96     6.81     0  02:15        0.96
  WS02004405           JUNCTION     0.68     0.96     6.81     0  02:15        0.96
  WS02004406           JUNCTION     0.69     0.96     6.79     0  02:15        0.96
  WS02004407           JUNCTION     0.15     0.30     6.61     0  02:16        0.30
  WS02004409           JUNCTION     0.35     0.67     6.44     0  02:16        0.67
  WS02004410           JUNCTION     0.37     0.68     6.40     0  02:06        0.68
  WS02004411           JUNCTION     0.39     0.69     6.37     0  02:07        0.69
  WS02004412           JUNCTION     0.42     0.70     6.34     0  02:17        0.70
  WS02004413           JUNCTION     0.57     0.86     6.33     0  02:07        0.86
  WS02006109           JUNCTION     0.61     1.05     7.66     0  01:29        0.97
  WS02006110           JUNCTION     0.61     1.00     7.59     0  01:29        0.93
  WS02006111           JUNCTION     0.16     0.29     6.99     0  02:44        0.29
  WS02006112           JUNCTION     0.70     1.06     6.95     0  01:57        1.06
  WS02006113           JUNCTION     0.24     0.46     7.35     0  02:40        0.46
  WS02006115           JUNCTION     0.44     0.75     6.89     0  01:57        0.75
  WS02006116           JUNCTION     0.52     0.83     6.87     0  02:14        0.83
  WS02006228           JUNCTION     0.61     1.07     7.72     0  01:29        1.06
  WS02006229           JUNCTION     0.59     1.09     7.78     0  01:29        1.08
  WS02006230           JUNCTION     0.59     1.22     7.97     0  01:29        1.17
  WS02006231           JUNCTION     0.40     1.04     8.16     0  03:00        0.96
  WS02006232           JUNCTION     0.54     1.33     8.36     0  03:00        1.16
  WS02006234           JUNCTION     0.48     1.37     8.53     0  03:00        1.15
  WS02006235           JUNCTION     0.53     1.49     8.66     0  03:00        1.21
  WS02006238           JUNCTION     0.55     1.54     8.68     0  03:00        1.24
  WS02006239           JUNCTION     0.51     1.52     8.73     0  03:00        1.22
  WS02006240           JUNCTION     0.48     1.47     8.76     0  03:00        1.19
  WS02006242           JUNCTION     0.54     1.50     8.77     0  03:00        1.29
  WS02006243           JUNCTION     0.46     1.36     8.78     0  03:00        1.25
  WS02006245           JUNCTION     0.46     1.28     8.76     0  03:00        1.19
  WS02006247           JUNCTION     0.47     1.24     8.74     0  03:00        1.21
  WS02006248           JUNCTION     0.44     1.10     8.69     0  01:40        1.10
  WS02006249           JUNCTION     0.47     1.09     8.69     0  01:28        1.09
  WS02006251           JUNCTION     0.46     1.35     9.02     0  01:28        1.12
  WS02006252           JUNCTION     0.30     1.50     9.74     0  00:00        0.67
  WS02006256           JUNCTION     1.25     2.35     9.28     0  00:00        2.35
  WSF200               JUNCTION     0.15     0.31     5.54     0  02:17        0.31
  YS02001580           JUNCTION     0.11     1.05     9.59     0  01:23        0.62
  YS02001583           JUNCTION     0.15     1.14     9.64     0  01:23        0.67
  YS02001586           JUNCTION     0.26     1.13     9.30     0  01:23        0.99
  YS02001590           JUNCTION     0.39     1.39     9.25     0  01:23        1.25
  YS02001593           JUNCTION     0.33     1.33     9.19     0  01:23        1.20
  YS02001596           JUNCTION     0.47     1.68     9.10     0  01:23        1.59
  YS02001600           JUNCTION     0.59     1.87     9.00     0  01:23        1.83
  YS02001601           JUNCTION     0.79     2.06     8.90     0  01:22        2.06
  YS02001602           JUNCTION     0.67     1.87     8.77     0  01:34        1.87
  YS02001605           JUNCTION     0.61     1.77     8.67     0  01:40        1.73
  YS02001607           JUNCTION     0.54     1.62     8.47     0  01:40        1.53
  YS02001610           JUNCTION     0.58     1.67     8.47     0  01:40        1.57
  YS02001613           JUNCTION     0.54     1.61     8.45     0  01:40        1.52
  YS02001616           JUNCTION     0.47     1.52     8.43     0  01:40        1.44
  YS02001619           JUNCTION     0.45     1.48     8.41     0  01:40        1.42
  YS02001622           JUNCTION     0.44     1.44     8.34     0  01:40        1.40
  YS02001625           JUNCTION     0.69     1.68     8.28     0  01:38        1.65
  YS02001629           JUNCTION     0.59     1.69     8.24     0  01:38        1.65
  YS02001633           JUNCTION     0.65     1.80     8.26     0  01:40        1.80
  YS02001641           JUNCTION     0.60     1.88     8.31     0  01:40        1.88
  YS02001644           JUNCTION     0.59     1.72     8.15     0  01:40        1.72
  YS02001647           JUNCTION     0.35     1.28     7.89     0  01:40        1.16
  YS02001649           JUNCTION     0.41     1.35     7.74     0  01:40        1.35
  YS02001652           JUNCTION     0.28     1.10     7.70     0  01:40        1.08
  YS02001655           JUNCTION     0.19     0.84     7.69     0  01:41        0.83
  YS02001658           JUNCTION     0.12     0.53     7.67     0  01:40        0.52
  YS02001661           JUNCTION     0.14     0.28     7.69     0  01:34        0.28
  YS02001664           JUNCTION     0.07     0.19     8.11     0  01:33        0.19
  YS02001745           JUNCTION     0.06     0.16     7.67     0  01:31        0.16
  YS02001748           JUNCTION     0.10     0.47     7.55     0  01:40        0.47
  YS02001751           JUNCTION     0.15     0.69     7.57     0  01:40        0.66
  YS02001754           JUNCTION     0.23     0.96     7.56     0  01:39        0.94
  YS02001757           JUNCTION     0.42     1.40     7.66     0  01:40        1.40
  YS02001759           JUNCTION     0.36     1.23     7.59     0  01:40        1.19
  YS02001762           JUNCTION     0.34     1.19     7.59     0  01:40        1.17
  YS02001765           JUNCTION     0.32     1.14     7.59     0  01:40        1.12
  YS02001767           JUNCTION     0.31     1.10     7.59     0  01:41        1.09
  YS02001770           JUNCTION     0.32     1.10     7.59     0  01:40        1.09
  YS02001774           JUNCTION     0.39     1.17     7.59     0  01:40        1.15
  YS02001779           JUNCTION     0.21     0.90     7.58     0  01:39        0.89
  YS02001783           JUNCTION     0.29     0.79     6.93     0  01:36        0.79
  YS02001784           JUNCTION     0.31     0.77     6.84     0  01:36        0.77
  YS02001786           JUNCTION     0.26     0.63     6.66     0  01:37        0.63
  YS02001788           JUNCTION     0.20     0.50     6.48     0  01:37        0.50
  YS02001790           JUNCTION     0.24     0.59     6.23     0  01:38        0.59
  YS02001791           JUNCTION     0.15     0.36     5.83     0  01:37        0.35
  YS02001793           JUNCTION     0.08     0.18     5.01     0  01:37        0.18
  YS02001882           JUNCTION     0.32     0.84     7.56     0  01:36        0.84
  YS02001884           JUNCTION     0.41     0.94     7.56     0  01:36        0.94
  YS02001887           JUNCTION     0.49     1.02     7.56     0  01:36        1.02
  YS02001890           JUNCTION     0.52     1.05     7.56     0  01:36        1.05
  YS02001895           JUNCTION     0.29     0.80     7.55     0  01:36        0.80
  YS02001898           JUNCTION     0.30     0.81     7.55     0  01:36        0.81
  YS02001901           JUNCTION     0.41     0.94     7.55     0  01:36        0.94
  YS02001904           JUNCTION     0.39     0.92     7.55     0  01:37        0.91
  YS02001907           JUNCTION     0.71     1.26     7.55     0  01:35        1.25
  YS02001910           JUNCTION     0.51     1.05     7.55     0  01:36        1.05
  YS02001915           JUNCTION     0.32     0.84     7.56     0  01:36        0.84
  YS02001918           JUNCTION     0.13     0.49     7.56     0  01:36        0.49
  YS02001920           JUNCTION     0.21     0.56     7.56     0  01:36        0.55
  YS02001923           JUNCTION     0.08     0.30     7.56     0  01:37        0.29
  YS02001926           JUNCTION     0.14     0.31     7.75     0  01:34        0.31
  YS02001929           JUNCTION     0.07     0.17     7.87     0  01:34        0.17
  YS02006553           JUNCTION     0.71     1.25     7.54     0  01:36        1.25
  YS02006556           JUNCTION     0.68     1.21     7.52     0  01:34        1.20
  YS02006558           JUNCTION     0.73     1.24     7.51     0  01:35        1.24
  YS02006561           JUNCTION     0.16     0.41     7.07     0  01:36        0.41
  YS02163301           JUNCTION     0.60     1.71     8.23     0  01:40        1.68
  YS02163601           JUNCTION     0.67     1.90     8.30     0  01:40        1.90
  YS02164001           JUNCTION     0.60     1.88     8.34     0  01:40        1.88
  CC-1                 OUTFALL      0.00     0.00     0.00     0  00:00        0.00
  CC-2                 OUTFALL      0.00     0.00     0.00     0  00:00        0.00
  JK-1                 OUTFALL      0.00     0.00     0.00     0  00:00        0.00
  JK-2                 OUTFALL      0.00     0.00     0.00     0  00:00        0.00
  WSC                  OUTFALL      0.24     0.35     1.02     0  02:20        0.35
  CC-storage           STORAGE      0.83     1.48     6.98     0  02:00        1.48
  JK-storage           STORAGE      2.79     4.22     5.02     0  01:30        4.19
  XR-storage           STORAGE      7.79     9.26     7.26     0  08:00        9.26
  
  
  *******************
  Node Inflow Summary
  *******************
  
  -------------------------------------------------------------------------------------------------
                                  Maximum  Maximum                  Lateral       Total        Flow
                                  Lateral    Total  Time of Max      Inflow      Inflow     Balance
                                   Inflow   Inflow   Occurrence      Volume      Volume       Error
  Node                 Type           LPS      LPS  days hr:min    10^6 ltr    10^6 ltr     Percent
  -------------------------------------------------------------------------------------------------
  WS02001211           JUNCTION      7.35   200.13     0  03:09       0.212        5.44       0.611
  WS02001212           JUNCTION      0.00   202.50     0  03:09           0        5.41       0.290
  WS02001213           JUNCTION      0.00   204.21     0  03:09           0        5.39       0.335
  WS02003059           JUNCTION      0.00   208.56     0  03:25           0        5.38       0.599
  WS02003060           JUNCTION     16.53   751.42     0  02:17       0.476        9.85       0.154
  WS02003066           JUNCTION      0.00   537.07     0  02:17           0        4.02       0.043
  WS02003067           JUNCTION      0.00   537.00     0  02:07           0        4.03       0.116
  WS02003069           JUNCTION      0.32   751.50     0  02:18     0.00922        9.83       0.162
  WS02003072           JUNCTION      0.00   751.37     0  02:18           0        9.82       0.220
  WS02003073           JUNCTION      1.82   753.10     0  02:19      0.0524        9.85       0.229
  WS02004138           JUNCTION      0.00   380.00     0  00:00           0        5.25       0.053
  WS02004139           JUNCTION      0.32   191.16     0  00:29     0.00924        5.26       0.509
  WS02004401           JUNCTION      0.00   539.15     0  02:15           0        4.14       0.267
  WS02004402           JUNCTION      0.00   538.46     0  02:15           0        4.13       0.269
  WS02004403           JUNCTION      0.00   538.19     0  02:15           0        4.12       0.262
  WS02004404           JUNCTION      0.16   538.00     0  02:15     0.00467        4.11       0.228
  WS02004405           JUNCTION      0.04   538.10     0  02:15      0.0011         4.1       0.309
  WS02004406           JUNCTION      0.00   538.31     0  02:15           0        4.09       0.536
  WS02004407           JUNCTION      0.00   537.78     0  02:15           0        4.07       0.043
  WS02004409           JUNCTION      0.00   537.59     0  02:16           0        4.07       0.093
  WS02004410           JUNCTION      0.00   537.43     0  02:06           0        4.06       0.139
  WS02004411           JUNCTION      0.00   537.31     0  02:07           0        4.06       0.169
  WS02004412           JUNCTION      0.00   537.30     0  02:07           0        4.05       0.217
  WS02004413           JUNCTION      0.00   537.16     0  02:07           0        4.04       0.373
  WS02006109           JUNCTION      1.23   548.98     0  01:29      0.0354        4.19       0.199
  WS02006110           JUNCTION      0.00   549.74     0  01:29           0        4.18       0.170
  WS02006111           JUNCTION      0.00   560.19     0  02:35           0        4.17       0.014
  WS02006112           JUNCTION      0.00   543.35     0  02:44           0        4.17       0.444
  WS02006113           JUNCTION      0.00   563.06     0  01:29           0        4.17       0.057
  WS02006115           JUNCTION      0.00   550.17     0  01:57           0        4.15       0.178
  WS02006116           JUNCTION      0.00   540.66     0  01:57           0        4.14       0.090
  WS02006228           JUNCTION      0.00   547.97     0  01:29           0        4.16       0.100
  WS02006229           JUNCTION      0.00   547.65     0  01:29           0        4.16       0.140
  WS02006230           JUNCTION     10.28   585.04     0  03:00       0.296        4.17       0.150
  WS02006231           JUNCTION      0.00   569.95     0  03:00           0        3.87      -0.061
  WS02006232           JUNCTION      0.00   567.02     0  03:00           0        3.88       0.278
  WS02006234           JUNCTION      0.00   558.99     0  03:00           0        3.87      -0.206
  WS02006235           JUNCTION      0.00   546.99     0  03:00           0        3.97       0.244
  WS02006238           JUNCTION      0.00   422.14     0  03:01           0        2.59      -0.093
  WS02006239           JUNCTION      0.00   421.97     0  03:01           0        2.53      -0.079
  WS02006240           JUNCTION      0.00   419.95     0  03:01           0        2.49      -0.034
  WS02006242           JUNCTION      0.00   420.28     0  03:01           0        2.46      -0.121
  WS02006243           JUNCTION      0.00   420.05     0  03:01           0        2.43      -0.111
  WS02006245           JUNCTION      0.00   421.13     0  03:00           0        2.44       0.472
  WS02006247           JUNCTION      0.00   420.31     0  03:00           0        2.43      -0.059
  WS02006248           JUNCTION      0.00   420.00     0  03:01           0        2.43      -0.256
  WS02006249           JUNCTION      0.00   467.35     0  03:15           0        2.84       0.729
  WS02006251           JUNCTION      0.08   406.70     0  01:28     0.00222        2.84      -0.012
  WS02006252           JUNCTION      0.00   400.00     0  00:00           0        2.83      -0.301
  WS02006256           JUNCTION      0.00   300.00     0  00:00           0         2.1      -0.494
  WSF200               JUNCTION      0.00   537.11     0  02:17           0        4.02       0.025
  YS02001580           JUNCTION      0.00    57.96     0  01:23           0     0.00428       0.780
  YS02001583           JUNCTION      0.00    83.03     0  01:22           0      0.0162      -2.688
  YS02001586           JUNCTION    256.81   258.00     0  01:40        1.28        1.29       0.081
  YS02001590           JUNCTION      0.00   257.18     0  01:40           0        1.27      -0.052
  YS02001593           JUNCTION      0.00   256.88     0  01:36           0        1.28      -0.004
  YS02001596           JUNCTION      0.00   256.87     0  01:36           0        1.28      -0.017
  YS02001600           JUNCTION      0.00   256.90     0  01:36           0        1.28       0.001
  YS02001601           JUNCTION    393.07   646.93     0  01:34         1.7        2.98       0.014
  YS02001602           JUNCTION      0.00   503.68     0  01:23           0        2.66       0.009
  YS02001605           JUNCTION      0.00   503.64     0  01:23           0        2.66       0.009
  YS02001607           JUNCTION      0.00   503.53     0  01:23           0        2.66       0.065
  YS02001610           JUNCTION      0.00   503.16     0  01:23           0        2.66       0.093
  YS02001613           JUNCTION      0.00   503.15     0  01:23           0        2.66       0.064
  YS02001616           JUNCTION      0.00   504.83     0  01:22           0        2.67       0.020
  YS02001619           JUNCTION    423.04   880.24     0  01:31        1.97        4.63       0.002
  YS02001622           JUNCTION      0.00   879.68     0  01:30           0        4.63      -0.002
  YS02001625           JUNCTION      0.00   879.38     0  01:30           0        4.63       0.221
  YS02001629           JUNCTION      0.00   879.16     0  01:30           0        4.62       0.013
  YS02001633           JUNCTION    302.36  1176.92     0  01:31        1.29        5.91       0.050
  YS02001641           JUNCTION      0.00  1175.70     0  01:31           0        5.92       0.045
  YS02001644           JUNCTION    250.95  1425.37     0  01:31        1.06        6.96       0.044
  YS02001647           JUNCTION      0.00  1425.21     0  01:31           0        6.95       0.001
  YS02001649           JUNCTION      0.00  1623.41     0  01:30           0        7.96       0.003
  YS02001652           JUNCTION      0.00   247.88     0  01:43           0        1.01      -0.165
  YS02001655           JUNCTION      0.15   296.62     0  01:42     0.00443        1.01       0.125
  YS02001658           JUNCTION      0.00   247.11     0  01:34           0        1.01      -0.003
  YS02001661           JUNCTION      0.00   240.42     0  01:33           0        1.01       0.035
  YS02001664           JUNCTION    240.43   240.43     0  01:33        1.01        1.01      -0.013
  YS02001745           JUNCTION    139.59   139.59     0  01:31       0.579       0.579       0.076
  YS02001748           JUNCTION      0.04   139.63     0  01:31      0.0013       0.579      -0.110
  YS02001751           JUNCTION      0.01   167.21     0  01:36    0.000317        0.58       0.123
  YS02001754           JUNCTION      0.26   171.61     0  01:41     0.00749       0.587      -0.185
  YS02001757           JUNCTION      0.00  2155.79     0  01:37           0        10.7       0.028
  YS02001759           JUNCTION    204.43   486.95     0  01:35       0.845        2.11      -0.013
  YS02001762           JUNCTION      0.00   294.81     0  01:38           0        1.26       0.002
  YS02001765           JUNCTION      0.00   296.03     0  01:37           0        1.26       0.009
  YS02001767           JUNCTION      0.54   299.91     0  01:37      0.0154        1.26       0.017
  YS02001770           JUNCTION    296.60   316.29     0  01:35        1.25        1.29      -0.014
  YS02001774           JUNCTION      0.00    64.68     0  01:30           0      0.0639       1.890
  YS02001779           JUNCTION      0.01    35.68     0  01:30    0.000144      0.0205       0.065
  YS02001783           JUNCTION      0.00   866.53     0  01:37           0        3.79       0.007
  YS02001784           JUNCTION      1.06   867.63     0  01:37      0.0305        3.82       0.013
  YS02001786           JUNCTION      0.06   867.57     0  01:36     0.00162        3.82       0.018
  YS02001788           JUNCTION      0.07   867.85     0  01:36     0.00204        3.82       0.010
  YS02001790           JUNCTION      0.15   868.98     0  01:37     0.00446        3.82       0.030
  YS02001791           JUNCTION      0.00   918.08     0  01:38           0        3.82      -0.013
  YS02001793           JUNCTION      0.00   879.39     0  01:37           0        3.82       0.007
  YS02001882           JUNCTION      0.00    31.23     0  01:16           0      0.0146       5.080
  YS02001884           JUNCTION      0.00    68.97     0  01:14           0      0.0479       5.556
  YS02001887           JUNCTION    208.33   215.94     0  01:19       0.877       0.908       0.473
  YS02001890           JUNCTION      0.00   207.55     0  01:22           0        0.87       0.596
  YS02001895           JUNCTION      0.00   205.85     0  01:32           0       0.865       0.268
  YS02001898           JUNCTION      0.00   209.09     0  01:22           0       0.862      -0.019
  YS02001901           JUNCTION      0.00   207.29     0  01:27           0       0.867       0.401
  YS02001904           JUNCTION      0.00   202.84     0  01:38           0       0.876       0.326
  YS02001907           JUNCTION      0.00   596.08     0  01:39           0        2.64       0.675
  YS02001910           JUNCTION      0.00   393.65     0  01:39           0        1.76       0.416
  YS02001915           JUNCTION    254.93   393.43     0  01:35        1.08        1.77       0.089
  YS02001918           JUNCTION      0.00   146.13     0  01:39           0        0.69       0.044
  YS02001920           JUNCTION      2.87   145.49     0  01:34      0.0827       0.691       0.154
  YS02001923           JUNCTION      0.04   140.30     0  01:34     0.00109       0.608      -0.000
  YS02001926           JUNCTION      0.05   140.30     0  01:34      0.0015       0.607       0.043
  YS02001929           JUNCTION    140.26   140.26     0  01:34       0.606       0.606      -0.011
  YS02006553           JUNCTION      0.00   595.86     0  01:39           0        2.64       0.440
  YS02006556           JUNCTION      0.00   595.48     0  01:39           0        2.65       0.313
  YS02006558           JUNCTION    287.28   866.88     0  01:36        1.21        3.83       0.087
  YS02006561           JUNCTION      0.00   866.62     0  01:37           0        3.79      -0.001
  YS02163301           JUNCTION      0.00   877.00     0  01:30           0        4.63       0.031
  YS02163601           JUNCTION      0.11  1176.75     0  01:31     0.00317         5.9       0.082
  YS02164001           JUNCTION      0.00  1176.47     0  01:31           0        5.91       0.040
  CC-1                 OUTFALL       0.00   683.00     0  00:00           0        4.48       0.000
  CC-2                 OUTFALL       0.00   683.00     0  00:00           0        4.09       0.000
  JK-1                 OUTFALL       0.00  1000.00     0  00:00           0        1.67       0.000
  JK-2                 OUTFALL       0.00  1000.00     0  00:00           0      0.0484       0.000
  WSC                  OUTFALL       0.00   753.00     0  02:20           0        9.82       0.000
  CC-storage           STORAGE       0.00  2156.79     0  01:37           0        12.9      -0.184
  JK-storage           STORAGE       0.00   878.84     0  01:37           0        3.97       0.036
  XR-storage           STORAGE     200.00   200.00     0  00:00        5.76        6.36       0.001
  
  
  **********************
  Node Surcharge Summary
  **********************
  
  Surcharging occurs when water rises above the top of the highest conduit.
  ---------------------------------------------------------------------
                                               Max. Height   Min. Depth
                                   Hours       Above Crown    Below Rim
  Node                 Type      Surcharged         Meters       Meters
  ---------------------------------------------------------------------
  WS02006109           JUNCTION        1.72          0.226        1.594
  WS02006110           JUNCTION        1.51          0.095        1.755
  WS02006112           JUNCTION        1.45          0.063        1.617
  WS02006228           JUNCTION        1.71          0.241        1.959
  WS02006229           JUNCTION        1.72          0.286        2.164
  WS02006230           JUNCTION        1.51          0.142        1.428
  WS02006231           JUNCTION        1.53          0.327        1.203
  WS02006232           JUNCTION        1.73          0.626        0.854
  WS02006234           JUNCTION        1.59          0.653        0.587
  WS02006235           JUNCTION        1.71          0.783        0.507
  WS02006238           JUNCTION        1.72          0.818        0.612
  WS02006239           JUNCTION        1.71          0.783        0.507
  WS02006240           JUNCTION        1.71          0.757        0.633
  WS02006242           JUNCTION        1.72          0.773        0.047
  WS02006243           JUNCTION        1.71          0.649        0.121
  WS02006245           JUNCTION        1.70          0.568        0.282
  WS02006247           JUNCTION        1.70          0.525        0.235
  WS02006248           JUNCTION        1.70          0.380        0.000
  WS02006249           JUNCTION        1.69          0.390        0.000
  WS02006251           JUNCTION        1.54          0.322        0.858
  WS02006252           JUNCTION        1.91          1.100        0.000
  WS02006256           JUNCTION        4.39          2.050        0.000
  YS02001580           JUNCTION        0.22          0.450        0.000
  YS02001583           JUNCTION        0.25          0.500        0.000
  YS02001586           JUNCTION        0.72          0.510        0.000
  YS02001590           JUNCTION        0.86          0.743        0.007
  YS02001593           JUNCTION        0.86          0.707        0.133
  YS02001596           JUNCTION        1.03          0.950        0.120
  YS02001600           JUNCTION        1.29          1.190        0.000
  YS02001601           JUNCTION        1.87          1.440        0.000
  YS02001602           JUNCTION        1.65          1.270        0.000
  YS02001605           JUNCTION        1.53          1.167        0.013
  YS02001607           JUNCTION        0.82          0.622        0.058
  YS02001610           JUNCTION        0.86          0.670        0.010
  YS02001613           JUNCTION        0.81          0.614        0.086
  YS02001616           JUNCTION        0.73          0.523        0.087
  YS02001619           JUNCTION        0.70          0.479        0.131
  YS02001622           JUNCTION        0.70          0.440        0.180
  YS02001625           JUNCTION        0.98          0.681        0.099
  YS02001629           JUNCTION        0.51          0.310        0.160
  YS02001633           JUNCTION        1.01          0.785        0.275
  YS02001641           JUNCTION        0.91          0.878        0.222
  YS02001644           JUNCTION        0.86          0.715        0.205
  YS02001647           JUNCTION        0.42          0.283        0.617
  YS02001649           JUNCTION        0.60          0.351        0.699
  YS02001652           JUNCTION        0.11          0.073        1.057
  YS02001757           JUNCTION        0.70          0.398        0.812
  YS02001759           JUNCTION        0.52          0.228        0.982
  YS02001762           JUNCTION        0.47          0.185        0.965
  YS02001765           JUNCTION        0.40          0.142        0.958
  YS02001767           JUNCTION        0.33          0.101        0.929
  YS02001770           JUNCTION        0.16          0.067        0.853
  YS02001774           JUNCTION        0.45          0.165        0.885
  YS02001907           JUNCTION        0.74          0.247        0.703
  YS02001910           JUNCTION        0.21          0.047        1.053
  YS02006553           JUNCTION        0.78          0.252        0.938
  YS02006556           JUNCTION        0.53          0.166        1.184
  YS02006558           JUNCTION        0.48          0.143        1.257
  YS02163301           JUNCTION        0.98          0.712        0.318
  YS02163601           JUNCTION        1.04          0.902        0.178
  YS02164001           JUNCTION        0.92          0.881        0.219
  
  
  *********************
  Node Flooding Summary
  *********************
  
  Flooding refers to all water that overflows a node, whether it ponds or not.
  --------------------------------------------------------------------------
                                                             Total   Maximum
                                 Maximum   Time of Max       Flood    Ponded
                        Hours       Rate    Occurrence      Volume     Depth
  Node                 Flooded       LPS   days hr:min    10^6 ltr    Meters
  --------------------------------------------------------------------------
  WS02006248              0.01     20.27      0  03:00       0.000     0.000
  WS02006249              1.54     95.42      0  01:28       0.391     0.000
  WS02006252              0.01    264.27      0  03:10       0.000     0.000
  WS02006256              1.94    293.19      0  00:00       0.653     0.000
  YS02001580              0.01     24.06      0  01:23       0.000     0.000
  YS02001583              0.01     28.81      0  01:23       0.000     0.000
  YS02001586              0.01     20.48      0  01:23       0.000     0.000
  YS02001600              0.01      0.36      0  01:23       0.000     0.000
  YS02001601              0.62    238.84      0  01:37       0.316     0.000
  YS02001602              0.08     17.08      0  01:40       0.001     0.000
  
  
  **********************
  Storage Volume Summary
  **********************
  
  ------------------------------------------------------------------------------------------------
                         Average    Avg   Evap  Exfil     Maximum    Max    Time of Max    Maximum
                          Volume   Pcnt   Pcnt   Pcnt      Volume   Pcnt     Occurrence    Outflow
  Storage Unit           1000 m³   Full   Loss   Loss     1000 m³   Full    days hr:min        LPS
  ------------------------------------------------------------------------------------------------
  CC-storage               2.323   36.2    0.0    0.0       4.135   64.5       0  02:00    1783.53
  JK-storage               0.140   48.2    0.0    0.0       0.212   72.7       0  01:30    2300.00
  XR-storage               0.935   64.9    0.0    0.0       1.111   77.2       0  08:00     380.00
  
  
  ***********************
  Outfall Loading Summary
  ***********************
  
  -----------------------------------------------------------
                         Flow       Avg       Max       Total
                         Freq      Flow      Flow      Volume
  Outfall Node           Pcnt       LPS       LPS    10^6 ltr
  -----------------------------------------------------------
  CC-1                  37.90    683.00    683.00       4.478
  CC-2                  33.94    683.00    683.00       4.087
  JK-1                  13.10   1000.00   1000.00       1.670
  JK-2                   0.24   1000.00   1000.00       0.048
  WSC                   99.93    416.51    753.00       9.824
  -----------------------------------------------------------
  System                37.02   3782.51   3366.23      20.107
  
  
  ********************
  Link Flow Summary
  ********************
  
  -----------------------------------------------------------------------------
                                 Maximum  Time of Max   Maximum    Max/    Max/
                                  |Flow|   Occurrence   |Veloc|    Full    Full
  Link                 Type          LPS  days hr:min     m/sec    Flow   Depth
  -----------------------------------------------------------------------------
  1                    CONDUIT    753.00     0  02:20      3.08    0.26    0.35
  WS02001211WS02001212 CONDUIT    202.50     0  03:09      0.54    0.15    0.51
  WS02001212WS02001213 CONDUIT    204.21     0  03:09      1.04    0.32    0.36
  WS02001213WS02003059 CONDUIT    208.56     0  03:25      0.47    0.34    0.67
  WS02003059WS02003060 CONDUIT    215.23     0  03:24      0.67    0.14    0.59
  WS02003060WS02003069 CONDUIT    751.18     0  02:18      1.77    0.29    0.40
  WS02003066WSF200     CONDUIT    537.11     0  02:17      2.74    0.09    0.23
  WS02003067WS02003066 CONDUIT    537.07     0  02:17      1.21    0.17    0.42
  WS02003069WS02003072 CONDUIT    751.37     0  02:18      1.51    0.36    0.45
  WS02003072WS02003073 CONDUIT    751.28     0  02:19      1.60    1.62    0.43
  WS02004138WS02004139 CONDUIT    190.84     0  00:29      2.17    0.04    0.33
  WS02004139WS02001211 CONDUIT    192.78     0  03:09      0.54    0.24    0.47
  WS02004401WS02004402 CONDUIT    538.46     0  02:15      0.97    0.65    0.86
  WS02004402WS02004403 CONDUIT    538.19     0  02:15      0.97    0.77    0.88
  WS02004403WS02004404 CONDUIT    537.83     0  02:15      0.92    0.39    0.93
  WS02004404WS02004405 CONDUIT    538.06     0  02:15      1.08    5.27    0.96
  WS02004405WS02004406 CONDUIT    538.31     0  02:15      0.99    1.06    0.96
  WS02004406WS02004407 CONDUIT    537.78     0  02:15      1.04    0.24    0.63
  WS02004407WS02004409 CONDUIT    537.59     0  02:16      1.57    0.19    0.48
  WS02004409WS02004410 CONDUIT    537.43     0  02:06      1.05    0.70    0.67
  WS02004410WS02004411 CONDUIT    537.31     0  02:07      1.00    0.73    0.69
  WS02004411WS02004412 CONDUIT    537.30     0  02:07      0.95    0.76    0.69
  WS02004412WS02004413 CONDUIT    537.16     0  02:07      0.82    0.36    0.78
  WS02004413WS02003067 CONDUIT    537.00     0  02:07      1.11    0.23    0.59
  WS02006109WS02006110 CONDUIT    549.74     0  01:29      1.09    1.06    1.00
  WS02006110WS02006113 CONDUIT    563.06     0  01:29      1.35    0.51    0.78
  WS02006111WS02006112 CONDUIT    543.35     0  02:44      1.82    0.26    0.67
  WS02006112WS02006115 CONDUIT    550.17     0  01:57      0.88    0.32    0.87
  WS02006113WS02006111 CONDUIT    560.19     0  02:35      2.46    0.67    0.46
  WS02006115WS02006116 CONDUIT    540.66     0  01:57      1.12    0.69    0.76
  WS02006116WS02004401 CONDUIT    539.15     0  02:15      0.98    0.74    0.84
  WS02006228WS02006109 CONDUIT    547.75     0  01:29      1.09    2.39    1.00
  WS02006229WS02006228 CONDUIT    547.97     0  01:29      1.15    1.81    1.00
  WS02006230WS02006229 CONDUIT    547.65     0  01:29      1.42   12.19    1.00
  WS02006231WS02006230 CONDUIT    574.77     0  03:00      1.51    8.72    1.00
  WS02006232WS02006231 CONDUIT    569.95     0  03:00      1.48    1.19    1.00
  WS02006234WS02006232 CONDUIT    567.02     0  03:00      1.47    1.15    1.00
  WS02006235WS02006234 CONDUIT    558.99     0  03:00      1.45    5.90    1.00
  WS02006238WS02006235 CONDUIT    419.27     0  03:01      1.55    0.94    1.00
  WS02006239WS02006238 CONDUIT    422.14     0  03:01      1.11    1.35    1.00
  WS02006240WS02006239 CONDUIT    421.97     0  03:01      1.24    1.33    1.00
  WS02006242WS02006240 CONDUIT    419.95     0  03:01      1.12    1.67    1.00
  WS02006243WS02006242 CONDUIT    420.28     0  03:01      1.39    0.90    1.00
  WS02006245WS02006243 CONDUIT    420.05     0  03:01      1.45    1.24    1.00
  WS02006247WS02006245 CONDUIT    421.13     0  03:00      1.44    3.34    1.00
  WS02006248WS02006247 CONDUIT    420.31     0  03:00      1.45    0.91    1.00
  WS02006249WS02006248 CONDUIT    420.00     0  03:01      1.39    2.30    1.00
  WS02006251WS02006249 CONDUIT    467.35     0  03:15      1.99    1.35    1.00
  WS02006252WS02006251 CONDUIT    406.62     0  01:28     25.11    1.49    1.00
  WS02006256WS02006235 CONDUIT    289.18     0  01:20      4.23    3.06    1.00
  WSF200WS02003060     CONDUIT    537.31     0  02:17      1.76    0.12    0.32
  YS02001580YS02001583 CONDUIT     57.96     0  01:23      0.46    0.22    1.00
  YS02001583YS02001586 CONDUIT     78.90     0  01:22      0.35    0.12    1.00
  YS02001586YS02001590 CONDUIT    257.18     0  01:40      1.25    0.45    1.00
  YS02001590YS02001593 CONDUIT    256.88     0  01:36      1.05    1.61    1.00
  YS02001593YS02001596 CONDUIT    256.87     0  01:36      1.72    0.41    1.00
  YS02001596YS02001600 CONDUIT    256.90     0  01:36      1.18    0.50    1.00
  YS02001600YS02001601 CONDUIT    256.91     0  01:36      0.91    0.44    1.00
  YS02001601YS02001602 CONDUIT    503.68     0  01:23      1.78    1.82    1.00
  YS02001602YS02001605 CONDUIT    503.64     0  01:23      1.78   10.66    1.00
  YS02001605YS02001607 CONDUIT    503.53     0  01:23      1.78    2.76    1.00
  YS02001607YS02001610 CONDUIT    503.16     0  01:23      0.72    0.48    1.00
  YS02001610YS02001613 CONDUIT    503.15     0  01:23      0.64    0.58    1.00
  YS02001613YS02001616 CONDUIT    504.83     0  01:22      0.68    0.43    1.00
  YS02001616YS02001619 CONDUIT    510.73     0  01:22      0.73    0.89    1.00
  YS02001619YS02001622 CONDUIT    879.68     0  01:30      1.54    1.30    1.00
  YS02001622YS02001625 CONDUIT    879.38     0  01:30      1.12    0.47    1.00
  YS02001625YS02001629 CONDUIT    879.16     0  01:30      1.12    0.42    1.00
  YS02001629YS02163301 CONDUIT    877.00     0  01:30      1.12    1.08    1.00
  YS02001633YS02163601 CONDUIT   1176.64     0  01:31      1.50    1.24    1.00
  YS02001641YS02001644 CONDUIT   1175.05     0  01:31      1.50    3.80    1.00
  YS02001644YS02001647 CONDUIT   1425.21     0  01:31      1.96    0.84    1.00
  YS02001647YS02001649 CONDUIT   1427.28     0  01:33      2.23    0.75    1.00
  YS02001649YS02001757 CONDUIT   1610.39     0  01:28      2.38    0.98    1.00
  YS02001652YS02001649 CONDUIT    246.81     0  01:41      1.16    0.12    1.00
  YS02001655YS02001652 CONDUIT    247.88     0  01:43      1.58    0.12    0.92
  YS02001658YS02001655 CONDUIT    296.47     0  01:42      1.78    0.13    0.66
  YS02001661YS02001658 CONDUIT    247.11     0  01:34      1.98    0.10    0.37
  YS02001664YS02001661 CONDUIT    240.42     0  01:33      1.74    0.08    0.23
  YS02001745YS02001748 CONDUIT    139.59     0  01:31      1.76    0.05    0.27
  YS02001748YS02001751 CONDUIT    167.20     0  01:36      1.47    0.08    0.57
  YS02001751YS02001754 CONDUIT    171.35     0  01:41      1.45    0.08    0.78
  YS02001754YS02001757 CONDUIT    155.49     0  01:44      0.89    0.06    0.98
  YS02001757CaochengTiaoxuchi CONDUIT   2156.79     0  01:37      2.82    0.93    1.00
  YS02001759YS02001757 CONDUIT    487.08     0  01:35      1.22    0.35    1.00
  YS02001762YS02001759 CONDUIT    294.10     0  01:38      0.71    0.34    1.00
  YS02001765YS02001762 CONDUIT    294.81     0  01:38      0.83    0.28    1.00
  YS02001767YS02001765 CONDUIT    296.03     0  01:37      0.90    0.37    1.00
  YS02001770YS02001767 CONDUIT    299.37     0  01:37      0.83    1.19    1.00
  YS02001774YS02001770 CONDUIT     64.68     0  01:30      0.61    0.04    1.00
  YS02001779YS02001774 CONDUIT     35.68     0  01:30      0.17    0.02    0.95
  YS02001783YS02001784 CONDUIT    866.57     0  01:37      1.73    1.19    0.98
  YS02001784YS02001785 CONDUIT    867.52     0  01:36      1.86    2.02    0.87
  YS02001786YS02001788 CONDUIT    867.78     0  01:36      2.30    1.67    0.70
  YS02001788YS02001790 CONDUIT    868.83     0  01:37      2.40    0.64    0.68
  YS02001790YS02001791 CONDUIT    918.08     0  01:38      3.00    1.00    0.59
  YS02001791YS02001793 CONDUIT    879.39     0  01:37      6.04    0.38    0.33
  YS02001793JiankangQianchi CONDUIT    878.84     0  01:37      1.82    0.07    0.59
  YS02001882YS02001884 CONDUIT     31.23     0  01:16      0.33    0.04    0.86
  YS02001884YS02001887 CONDUIT     68.97     0  01:14      0.26    0.09    0.95
  YS02001887YS02001890 CONDUIT    207.55     0  01:22      0.31    0.36    1.00
  YS02001890YS02001895 CONDUIT    205.85     0  01:32      0.33    0.10    0.90
  YS02001895YS02001898 CONDUIT    209.09     0  01:22      0.60    0.36    0.79
  YS02001898YS02001901 CONDUIT    207.29     0  01:27      0.52    0.13    0.88
  YS02001901YS02001904 CONDUIT    202.84     0  01:38      0.53    0.31    0.93
  YS02001904YS02001907 CONDUIT    204.54     0  01:42      0.30    0.07    0.96
  YS02001907YS02006553 CONDUIT    595.86     0  01:39      0.66    0.70    1.00
  YS02001910YS02001907 CONDUIT    394.08     0  01:39      0.50    0.22    1.00
  YS02001915YS02001910 CONDUIT    393.65     0  01:39      1.00    0.20    0.92
  YS02001918YS02001915 CONDUIT    152.97     0  01:40      0.44    0.08    0.67
  YS02001920YS02001918 CONDUIT    146.13     0  01:39      0.69    0.14    0.52
  YS02001923YS02001920 CONDUIT    142.62     0  01:34      0.75    0.06    0.42
  YS02001926YS02001923 CONDUIT    140.27     0  01:34      0.87    0.20    0.26
  YS02001929YS02001926 CONDUIT    140.25     0  01:34      0.96    0.07    0.24
  YS02006553YS02006556 CONDUIT    595.48     0  01:39      0.76    0.51    1.00
  YS02006556YS02006558 CONDUIT    596.36     0  01:38      0.76    0.47    1.00
  YS02006558YS02006561 CONDUIT    866.62     0  01:37      3.43    1.92    0.84
  YS02006561YS02001783 CONDUIT    866.53     0  01:37      2.15    0.45    0.75
  YS02163301YS02001633 CONDUIT    876.87     0  01:30      1.12    0.82    1.00
  YS02163601YS02164001 CONDUIT   1176.47     0  01:31      1.50    1.04    1.00
  YS02164001YS02001641 CONDUIT   1175.70     0  01:31      1.50    1.61    1.00
  CC-R1                PUMP       683.00     0  00:00              1.00
  CC-R2                PUMP       683.00     0  00:00              1.00
  CC-S1                PUMP       200.00     0  00:00              1.00
  CC-S2                PUMP       200.00     0  00:00              1.00
  JK-R1                PUMP      1000.00     0  00:00              1.00
  JK-R2                PUMP      1000.00     0  00:00              1.00
  JK-S                 PUMP       300.00     0  00:00              1.00
  XR-1                 PUMP        95.00     0  00:00              1.00
  XR-2                 PUMP        95.00     0  00:00              1.00
  XR-3                 PUMP        95.00     0  00:00              1.00
  XR-4                 PUMP        95.00     0  00:00              1.00
  
  
  ***************************
  Flow Classification Summary
  ***************************
  
  -------------------------------------------------------------------------------------
                      Adjusted    ---------- Fraction of Time in Flow Class ---------- 
                       /Actual         Up    Down  Sub   Sup   Up    Down  Norm  Inlet 
  Conduit               Length    Dry  Dry   Dry   Crit  Crit  Crit  Crit  Ltd   Ctrl  
  -------------------------------------------------------------------------------------
  1                       1.00   0.00  0.00  0.00  0.00  1.00  0.00  0.00  0.16  0.00
  WS02001211WS02001212    1.00   0.00  0.02  0.00  0.98  0.00  0.00  0.00  0.00  0.00
  WS02001212WS02001213    1.00   0.02  0.00  0.00  0.23  0.00  0.74  0.00  0.00  0.00
  WS02001213WS02003059    1.00   0.00  0.01  0.00  0.99  0.00  0.00  0.00  0.00  0.00
  WS02003059WS02003060    1.00   0.00  0.00  0.00  1.00  0.00  0.00  0.00  0.03  0.00
  WS02003060WS02003069    1.00   0.00  0.00  0.00  0.98  0.02  0.00  0.00  0.59  0.00
  WS02003066WSF200        1.00   0.13  0.00  0.00  0.00  0.87  0.00  0.00  0.68  0.00
  WS02003067WS02003066    1.00   0.10  0.02  0.00  0.88  0.00  0.00  0.00  0.00  0.00
  WS02003069WS02003072    1.00   0.00  0.00  0.00  1.00  0.00  0.00  0.00  0.73  0.00
  WS02003072WS02003073    1.00   0.00  0.00  0.00  0.00  0.00  0.00  1.00  0.00  0.00
  WS02004138WS02004139    1.00   0.00  0.00  0.00  0.97  0.01  0.00  0.02  0.98  0.00
  WS02004139WS02001211    1.00   0.00  0.00  0.00  0.99  0.00  0.00  0.00  0.00  0.00
  WS02004401WS02004402    1.00   0.02  0.00  0.00  0.98  0.00  0.00  0.00  0.00  0.00
  WS02004402WS02004403    1.00   0.02  0.00  0.00  0.97  0.00  0.00  0.00  0.00  0.00
  WS02004403WS02004404    1.00   0.00  0.03  0.00  0.97  0.00  0.00  0.00  0.00  0.00
  WS02004404WS02004405    1.00   0.00  0.00  0.00  1.00  0.00  0.00  0.00  0.01  0.00
  WS02004405WS02004406    1.00   0.00  0.00  0.00  1.00  0.00  0.00  0.00  0.00  0.00
  WS02004406WS02004407    1.00   0.00  0.05  0.00  0.95  0.00  0.00  0.00  0.00  0.00
  WS02004407WS02004409    1.00   0.05  0.00  0.00  0.94  0.01  0.00  0.00  0.94  0.00
  WS02004409WS02004410    1.00   0.05  0.00  0.00  0.95  0.00  0.00  0.00  0.03  0.00
  WS02004410WS02004411    1.00   0.05  0.00  0.00  0.95  0.00  0.00  0.00  0.01  0.00
  WS02004411WS02004412    1.00   0.05  0.00  0.00  0.95  0.00  0.00  0.00  0.00  0.00
  WS02004412WS02004413    1.00   0.05  0.00  0.00  0.94  0.00  0.00  0.00  0.01  0.00
  WS02004413WS02003067    1.00   0.06  0.04  0.00  0.00  0.00  0.90  0.00  0.00  0.00
  WS02006109WS02006110    1.00   0.00  0.01  0.00  0.98  0.00  0.01  0.00  0.00  0.00
  WS02006110WS02006113    1.00   0.01  0.01  0.00  0.98  0.00  0.00  0.00  0.00  0.00
  WS02006111WS02006112    1.00   0.02  0.00  0.00  0.98  0.00  0.00  0.00  0.98  0.00
  WS02006112WS02006115    1.00   0.02  0.00  0.00  0.97  0.00  0.00  0.00  0.00  0.00
  WS02006113WS02006111    1.00   0.02  0.00  0.00  0.00  0.98  0.00  0.00  0.10  0.00
  WS02006115WS02006116    1.00   0.02  0.00  0.00  0.97  0.00  0.00  0.01  0.00  0.00
  WS02006116WS02004401    1.00   0.02  0.00  0.00  0.98  0.00  0.00  0.00  0.00  0.00
  WS02006228WS02006109    1.00   0.00  0.00  0.00  1.00  0.00  0.00  0.00  0.00  0.00
  WS02006229WS02006228    1.00   0.00  0.00  0.00  0.99  0.00  0.00  0.01  0.00  0.00
  WS02006230WS02006229    1.00   0.00  0.00  0.00  0.99  0.00  0.00  0.01  0.03  0.00
  WS02006231WS02006230    1.00   0.00  0.00  0.00  0.22  0.00  0.78  0.00  0.00  0.00
  WS02006232WS02006231    1.00   0.00  0.00  0.00  0.99  0.00  0.01  0.00  0.00  0.00
  WS02006234WS02006232    1.00   0.00  0.00  0.00  1.00  0.00  0.00  0.00  0.34  0.00
  WS02006235WS02006234    1.00   0.00  0.00  0.00  0.62  0.00  0.38  0.00  0.00  0.00
  WS02006238WS02006235    1.00   0.00  0.00  0.00  1.00  0.00  0.00  0.00  0.00  0.00
  WS02006239WS02006238    1.00   0.00  0.00  0.00  1.00  0.00  0.00  0.00  0.45  0.00
  WS02006240WS02006239    1.00   0.00  0.00  0.00  0.50  0.00  0.00  0.50  0.03  0.00
  WS02006242WS02006240    1.00   0.00  0.00  0.00  1.00  0.00  0.00  0.00  0.00  0.00
  WS02006243WS02006242    1.00   0.00  0.00  0.00  0.99  0.00  0.00  0.01  0.68  0.00
  WS02006245WS02006243    1.00   0.00  0.00  0.00  0.50  0.00  0.00  0.49  0.02  0.00
  WS02006247WS02006245    1.00   0.00  0.00  0.00  0.98  0.00  0.00  0.02  0.00  0.00
  WS02006248WS02006247    1.00   0.00  0.00  0.00  0.99  0.00  0.00  0.01  0.21  0.00
  WS02006249WS02006248    1.00   0.00  0.00  0.00  0.36  0.00  0.64  0.00  0.00  0.00
  WS02006251WS02006249    1.00   0.00  0.00  0.00  0.99  0.01  0.00  0.00  0.68  0.00
  WS02006252WS02006251    1.00   0.00  0.69  0.00  0.19  0.00  0.12  0.00  0.01  0.00
  WS02006256WS02006235    1.00   0.00  0.00  0.00  0.99  0.01  0.00  0.00  0.00  0.00
  WSF200WS02003060        1.00   0.00  0.13  0.00  0.66  0.21  0.00  0.00  0.65  0.00
  YS02001580YS02001583    1.00   0.17  0.64  0.00  0.20  0.00  0.00  0.00  0.73  0.00
  YS02001583YS02001586    1.00   0.48  0.26  0.00  0.26  0.00  0.00  0.00  0.73  0.00
  YS02001586YS02001590    1.00   0.13  0.00  0.00  0.41  0.03  0.00  0.43  0.32  0.00
  YS02001590YS02001593    1.00   0.13  0.00  0.00  0.13  0.00  0.74  0.00  0.00  0.00
  YS02001593YS02001596    1.00   0.13  0.00  0.00  0.16  0.01  0.00  0.70  0.03  0.00
  YS02001596YS02001600    1.00   0.13  0.00  0.00  0.25  0.01  0.00  0.62  0.07  0.00
  YS02001600YS02001601    1.00   0.13  0.00  0.00  0.87  0.00  0.00  0.00  0.58  0.00
  YS02001601YS02001602    1.00   0.13  0.00  0.00  0.87  0.00  0.00  0.00  0.00  0.00
  YS02001602YS02001605    1.00   0.13  0.00  0.00  0.87  0.00  0.00  0.00  0.00  0.00
  YS02001605YS02001607    1.00   0.13  0.00  0.00  0.87  0.00  0.00  0.00  0.00  0.00
  YS02001607YS02001610    1.00   0.13  0.00  0.00  0.87  0.00  0.00  0.00  0.00  0.00
  YS02001610YS02001613    1.00   0.13  0.00  0.00  0.87  0.00  0.00  0.00  0.00  0.00
  YS02001613YS02001616    1.00   0.13  0.00  0.00  0.87  0.00  0.00  0.00  0.00  0.00
  YS02001616YS02001619    1.00   0.13  0.00  0.00  0.87  0.00  0.00  0.00  0.00  0.00
  YS02001619YS02001622    1.00   0.13  0.00  0.00  0.87  0.00  0.00  0.00  0.35  0.00
  YS02001622YS02001625    1.00   0.13  0.00  0.00  0.87  0.01  0.00  0.00  0.01  0.00
  YS02001625YS02001629    1.00   0.13  0.02  0.00  0.19  0.00  0.67  0.00  0.00  0.00
  YS02001629YS02163301    1.00   0.13  0.00  0.00  0.87  0.00  0.00  0.00  0.00  0.00
  YS02001633YS02163601    1.00   0.00  0.01  0.00  0.99  0.00  0.00  0.00  0.13  0.00
  YS02001641YS02001644    1.00   0.00  0.01  0.00  0.99  0.00  0.00  0.00  0.00  0.00
  YS02001644YS02001647    1.00   0.00  0.14  0.00  0.86  0.00  0.00  0.00  0.00  0.00
  YS02001647YS02001649    1.00   0.00  0.14  0.00  0.58  0.29  0.00  0.00  0.58  0.00
  YS02001649YS02001757    1.00   0.00  0.00  0.00  0.69  0.30  0.00  0.00  0.54  0.00
  YS02001652YS02001649    1.00   0.00  0.00  0.00  0.99  0.01  0.00  0.00  0.72  0.00
  YS02001655YS02001652    1.00   0.00  0.00  0.00  0.23  0.01  0.00  0.76  0.10  0.00
  YS02001658YS02001655    1.00   0.00  0.13  0.00  0.67  0.20  0.00  0.00  0.74  0.00
  YS02001661YS02001658    1.00   0.13  0.00  0.00  0.51  0.36  0.00  0.00  0.81  0.00
  YS02001664YS02001661    1.00   0.13  0.00  0.00  0.66  0.21  0.00  0.00  0.87  0.00
  YS02001745YS02001748    1.00   0.00  0.00  0.00  0.07  0.02  0.00  0.92  0.08  0.00
  YS02001748YS02001751    1.00   0.00  0.00  0.00  0.82  0.18  0.00  0.00  0.82  0.00
  YS02001751YS02001754    1.00   0.00  0.00  0.00  0.16  0.00  0.00  0.83  0.04  0.00
  YS02001754YS02001757    1.00   0.00  0.00  0.00  0.99  0.01  0.00  0.00  0.82  0.00
  YS02001757CaochengTiaoxuchi    1.00   0.00  0.00  0.00  1.00  0.00  0.00  0.00  0.82  0.00
  YS02001759YS02001757    1.00   0.00  0.00  0.00  0.99  0.01  0.00  0.00  0.62  0.00
  YS02001762YS02001759    1.00   0.00  0.00  0.00  1.00  0.00  0.00  0.00  0.01  0.00
  YS02001765YS02001762    1.00   0.00  0.00  0.00  1.00  0.00  0.00  0.00  0.71  0.00
  YS02001767YS02001765    1.00   0.00  0.00  0.00  1.00  0.00  0.00  0.00  0.00  0.00
  YS02001770YS02001767    1.00   0.00  0.00  0.00  1.00  0.00  0.00  0.00  0.00  0.00
  YS02001774YS02001770    1.00   0.00  0.13  0.00  0.61  0.00  0.26  0.00  0.00  0.00
  YS02001779YS02001774    1.00   0.00  0.00  0.00  1.00  0.00  0.00  0.00  0.75  0.00
  YS02001783YS02001784    1.00   0.00  0.14  0.00  0.86  0.00  0.00  0.00  0.57  0.00
  YS02001784YS02001785    1.00   0.00  0.00  0.00  1.00  0.00  0.00  0.00  0.13  0.00
  YS02001786YS02001788    1.00   0.00  0.00  0.00  0.70  0.30  0.00  0.00  0.00  0.00
  YS02001788YS02001790    1.00   0.00  0.00  0.00  0.15  0.85  0.00  0.00  0.77  0.00
  YS02001790YS02001791    1.00   0.00  0.00  0.00  0.01  0.99  0.00  0.00  0.22  0.00
  YS02001791YS02001793    1.00   0.00  0.00  0.00  0.00  1.00  0.00  0.00  0.00  0.00
  YS02001793JiankangQianchi    1.00   0.00  0.00  0.00  1.00  0.00  0.00  0.00  1.00  0.00
  YS02001882YS02001884    1.00   0.13  0.00  0.00  0.87  0.00  0.00  0.00  0.00  0.00
  YS02001884YS02001887    1.00   0.06  0.05  0.00  0.89  0.00  0.00  0.00  0.00  0.00
  YS02001887YS02001890    1.00   0.00  0.00  0.00  0.97  0.00  0.03  0.00  0.00  0.00
  YS02001890YS02001895    1.00   0.00  0.13  0.00  0.87  0.00  0.00  0.00  0.00  0.00
  YS02001895YS02001898    1.00   0.14  0.00  0.00  0.86  0.00  0.01  0.00  0.00  0.00
  YS02001898YS02001901    1.00   0.14  0.00  0.00  0.86  0.00  0.00  0.00  0.00  0.00
  YS02001901YS02001904    1.00   0.14  0.00  0.00  0.86  0.00  0.00  0.00  0.00  0.00
  YS02001904YS02001907    1.00   0.00  0.13  0.00  0.86  0.00  0.00  0.00  0.00  0.00
  YS02001907YS02006553    1.00   0.00  0.02  0.00  0.98  0.00  0.00  0.00  0.00  0.00
  YS02001910YS02001907    1.00   0.00  0.00  0.00  0.97  0.00  0.00  0.03  0.10  0.00
  YS02001915YS02001910    1.00   0.00  0.00  0.00  0.98  0.02  0.00  0.00  0.11  0.00
  YS02001918YS02001915    1.00   0.00  0.01  0.00  0.98  0.02  0.00  0.00  0.74  0.00
  YS02001920YS02001918    1.00   0.00  0.01  0.00  0.99  0.00  0.00  0.00  0.00  0.00
  YS02001923YS02001920    1.00   0.00  0.00  0.00  1.00  0.00  0.00  0.00  0.95  0.00
  YS02001926YS02001923    1.00   0.00  0.07  0.00  0.00  0.00  0.93  0.00  0.00  0.00
  YS02001929YS02001926    1.00   0.00  0.13  0.00  0.87  0.00  0.00  0.00  0.87  0.00
  YS02006553YS02006556    1.00   0.01  0.00  0.00  0.99  0.00  0.00  0.00  0.03  0.00
  YS02006556YS02006558    1.00   0.00  0.00  0.00  1.00  0.00  0.00  0.00  0.00  0.00
  YS02006558YS02006561    1.00   0.14  0.00  0.00  0.00  0.86  0.00  0.00  0.20  0.00
  YS02006561YS02001783    1.00   0.14  0.00  0.00  0.08  0.78  0.00  0.00  0.70  0.00
  YS02163301YS02001633    1.00   0.00  0.13  0.00  0.87  0.00  0.00  0.00  0.00  0.00
  YS02163601YS02164001    1.00   0.00  0.08  0.00  0.92  0.00  0.00  0.00  0.00  0.00
  YS02164001YS02001641    1.00   0.01  0.07  0.00  0.92  0.00  0.00  0.00  0.05  0.00
  
  
  *************************
  Conduit Surcharge Summary
  *************************
  
  ----------------------------------------------------------------------------
                                                           Hours        Hours 
                         --------- Hours Full --------   Above Full   Capacity
  Conduit                Both Ends  Upstream  Dnstream   Normal Flow   Limited
  ----------------------------------------------------------------------------
  WS02003072WS02003073        0.01      0.01      0.01      1.82         0.01
  WS02004404WS02004405        0.01      0.01      0.01      2.24         0.01
  WS02004405WS02004406        0.01      0.01      0.01      1.44         0.01
  WS02006109WS02006110        1.51      1.51      1.74      1.52         0.01
  WS02006110WS02006113        0.01      0.01      1.73      0.01         0.01
  WS02006111WS02006112        0.01      0.01      1.79      0.01         0.01
  WS02006112WS02006115        0.01      0.01      1.45      0.01         0.01
  WS02006228WS02006109        1.72      1.73      1.72      1.86         1.72
  WS02006229WS02006228        1.71      1.72      1.71      1.79         1.71
  WS02006230WS02006229        1.75      1.77      1.75      3.17         1.75
  WS02006231WS02006230        1.51      1.51      1.54      2.65         0.01
  WS02006232WS02006231        1.53      1.53      1.73      1.55         0.01
  WS02006234WS02006232        1.71      1.71      1.73      1.54         1.55
  WS02006235WS02006234        1.59      1.59      1.71      2.44         0.01
  WS02006238WS02006235        1.72      1.72      1.73      0.01         0.01
  WS02006239WS02006238        1.72      1.73      1.72      1.73         1.66
  WS02006240WS02006239        1.71      1.72      1.71      1.74         1.60
  WS02006242WS02006240        1.71      1.71      1.74      1.80         0.01
  WS02006243WS02006242        1.71      1.71      1.72      0.01         0.01
  WS02006245WS02006243        1.70      1.70      1.71      0.23         0.26
  WS02006247WS02006245        1.70      1.71      1.70      1.96         1.70
  WS02006248WS02006247        1.70      1.70      1.70      0.01         0.01
  WS02006249WS02006248        1.69      1.70      1.69      1.93         0.01
  WS02006251WS02006249        1.69      1.69      1.69      1.83         1.68
  WS02006252WS02006251        1.91      1.91      1.91      1.91         0.01
  WS02006256WS02006235        2.49      2.52      4.36      1.95         0.01
  YS02001580YS02001583        0.22      0.22      0.52      0.01         0.01
  YS02001583YS02001586        0.25      0.25      0.72      0.01         0.01
  YS02001586YS02001590        0.73      0.73      0.86      0.01         0.01
  YS02001590YS02001593        0.86      0.86      0.90      0.91         0.01
  YS02001593YS02001596        0.88      0.88      1.03      0.01         0.01
  YS02001596YS02001600        1.09      1.09      1.29      0.01         0.01
  YS02001600YS02001601        1.36      1.36      1.87      0.01         0.01
  YS02001601YS02001602        1.65      1.65      1.90      1.34         0.01
  YS02001602YS02001605        1.53      1.53      1.65      2.36         0.01
  YS02001605YS02001607        1.45      1.53      1.45      1.86         1.45
  YS02001607YS02001610        0.82      0.82      0.86      0.01         0.01
  YS02001610YS02001613        0.81      0.81      0.86      0.01         0.01
  YS02001613YS02001616        0.73      0.73      0.81      0.01         0.01
  YS02001616YS02001619        0.70      0.70      0.73      0.01         0.01
  YS02001619YS02001622        0.70      0.70      0.70      0.91         0.70
  YS02001622YS02001625        0.70      0.70      0.98      0.01         0.01
  YS02001625YS02001629        0.51      0.51      0.98      0.01         0.01
  YS02001629YS02163301        0.97      0.97      0.98      0.32         0.40
  YS02001633YS02163601        1.01      1.01      1.04      0.71         0.71
  YS02001641YS02001644        0.86      0.91      0.86      1.90         0.86
  YS02001644YS02001647        0.42      0.42      0.86      0.01         0.01
  YS02001647YS02001649        0.42      0.42      0.60      0.01         0.01
  YS02001649YS02001757        0.60      0.60      0.70      0.01         0.01
  YS02001652YS02001649        0.23      0.23      0.60      0.01         0.01
  YS02001655YS02001652        0.01      0.01      0.11      0.01         0.01
  YS02001754YS02001757        0.01      0.01      0.70      0.01         0.01
  YS02001757CaochengTiaoxuchi        0.70      0.70      1.39      0.01         0.01
  YS02001759YS02001757        0.52      0.52      0.70      0.01         0.01
  YS02001762YS02001759        0.47      0.47      0.52      0.01         0.01
  YS02001765YS02001762        0.40      0.40      0.47      0.01         0.01
  YS02001767YS02001765        0.33      0.33      0.40      0.01         0.01
  YS02001770YS02001767        0.32      0.33      0.33      0.28         0.15
  YS02001774YS02001770        0.16      0.16      0.45      0.01         0.01
  YS02001779YS02001774        0.01      0.01      0.45      0.01         0.01
  YS02001783YS02001784        0.01      0.01      0.01      0.60         0.01
  YS02001784YS02001785        0.01      0.01      0.01      1.04         0.01
  YS02001786YS02001788        0.01      0.01      0.01      0.83         0.01
  YS02001793JiankangQianchi        0.01      0.01      7.70      0.01         0.01
  YS02001887YS02001890        0.01      0.01      0.12      0.01         0.01
  YS02001890YS02001895        0.01      0.01      0.21      0.01         0.01
  YS02001904YS02001907        0.01      0.01      0.79      0.01         0.01
  YS02001907YS02006553        1.05      1.05      1.16      0.01         0.01
  YS02001910YS02001907        0.21      0.21      0.74      0.01         0.01
  YS02001915YS02001910        0.01      0.01      0.21      0.01         0.01
  YS02006553YS02006556        0.53      0.53      0.78      0.01         0.01
  YS02006556YS02006558        0.65      0.65      0.82      0.01         0.01
  YS02006558YS02006561        0.01      0.48      0.01      0.97         0.01
  YS02163301YS02001633        0.98      0.98      1.03      0.01         0.01
  YS02163601YS02164001        0.92      0.92      1.04      0.21         0.01
  YS02164001YS02001641        0.91      0.92      0.91      1.08         0.90
  
  
  ***************
  Pumping Summary
  ***************
  
  ---------------------------------------------------------------------------------------------------------
                                                  Min       Avg       Max     Total     Power    % Time Off
                        Percent   Number of      Flow      Flow      Flow    Volume     Usage    Pump Curve
  Pump                 Utilized   Start-Ups       LPS       LPS       LPS  10^6 ltr     Kw-hr    Low   High
  ---------------------------------------------------------------------------------------------------------
  CC-R1                   22.74          15      0.00    683.00    683.00     4.474     81.27    0.0   28.8
  CC-R2                   20.75          15      0.00    683.00    683.00     4.083     74.02    0.0   31.6
  CC-S1                   25.11          15      0.00    200.00    200.00     1.446      8.76    0.0    0.0
  CC-S2                   23.90          15      0.00    200.00    200.00     1.377      8.35    0.0    0.0
  JK-R1                    5.79          10      0.00   1000.00   1000.00     1.668     17.44    0.0    0.0
  JK-R2                    0.16           1      0.00   1000.00   1000.00     0.047      0.36    0.0    0.0
  JK-S                    24.24          10      0.00    300.00    300.00     2.094     33.27    0.0    0.0
  XR-1                    97.91           2      0.00     95.00     95.00     2.679      9.60    0.0    0.0
  XR-2                    93.94           2      0.00     95.00     95.00     2.570      8.76    0.0    0.0
  XR-3                     0.00           1      0.00     95.00     95.00     0.000      0.00    0.0    0.0
  XR-4                     0.00           1      0.00     95.00     95.00     0.000      0.00    0.0    0.0
  

  Analysis begun on:  Wed Nov  5 16:19:05 2025
  Analysis ended on:  Wed Nov  5 16:19:07 2025
  Total elapsed time: 00:00:02