
  EPA STORM WATER MANAGEMENT MODEL - VERSION 5.2 (Build 5.2.4)
  PYSWMM TOOLKIT API - VERSION v1.0 (2023-11-27)
  ------------------------------------------------------------

  WARNING 04: minimum elevation drop used for Conduit WS02004404WS02004405
  WARNING 03: negative offset ignored for Link YS02001904YS02001907
  
  ****************
  Analysis Options
  ****************
  Flow Units ............... LPS
  Process Models:
    Rainfall/Runoff ........ YES
    RDII ................... NO
    Snowmelt ............... NO
    Groundwater ............ NO
    Flow Routing ........... YES
    Ponding Allowed ........ NO
    Water Quality .......... NO
  Infiltration Method ...... HORTON
  Flow Routing Method ...... DYNWAVE
  Surcharge Method ......... EXTRAN
  Starting Date ............ 08/28/2015 08:00:00
  Ending Date .............. 08/28/2015 16:00:00
  Antecedent Dry Days ...... 8.0
  Report Time Step ......... 00:01:00
  Wet Time Step ............ 00:01:00
  Dry Time Step ............ 00:01:00
  Routing Time Step ........ 30.00 sec
  Variable Time Step ....... YES
  Maximum Trials ........... 8
  Number of Threads ........ 4
  Head Tolerance ........... 0.001500 m
  
  
  **************************        Volume         Depth
  Runoff Quantity Continuity     hectare-m            mm
  **************************     ---------       -------
  Initial LID Storage ......         0.049         1.488
  Total Precipitation ......         1.198        36.111
  Evaporation Loss .........         0.000         0.000
  Infiltration Loss ........         0.069         2.066
  Surface Runoff ...........         0.852        25.673
  Final Storage ............         0.328         9.885
  Continuity Error (%) .....        -0.066
  
  
  **************************        Volume        Volume
  Flow Routing Continuity        hectare-m      10^6 ltr
  **************************     ---------     ---------
  Dry Weather Inflow .......         0.602         6.020
  Wet Weather Inflow .......         0.851         8.508
  Groundwater Inflow .......         0.000         0.000
  RDII Inflow ..............         0.000         0.000
  External Inflow ..........         0.105         1.045
  External Outflow .........         1.426        14.257
  Flooding Loss ............         0.089         0.891
  Evaporation Loss .........         0.000         0.000
  Exfiltration Loss ........         0.000         0.000
  Initial Stored Volume ....         0.303         3.031
  Final Stored Volume ......         0.351         3.506
  Continuity Error (%) .....        -0.270
  
  
  *************************
  Highest Continuity Errors
  *************************
  Node YS02001583 (-14.95%)
  Node YS02001884 (4.98%)
  Node YS02001774 (1.57%)
  Node YS02001907 (1.12%)
  
  
  ***************************
  Time-Step Critical Elements
  ***************************
  Link WS02004404WS02004405 (55.96%)
  Link WS02006238WS02006235 (10.47%)
  Link WS02003066WSF200 (6.00%)
  Link YS02001791YS02001793 (4.93%)
  Link WS02006252WS02006251 (4.75%)
  
  
  ********************************
  Highest Flow Instability Indexes
  ********************************
  Link WS02006113WS02006111 (28)
  Link WS02004404WS02004405 (22)
  Link WS02004403WS02004404 (20)
  Link WS02004405WS02004406 (17)
  Link WS02006111WS02006112 (17)
  
  
  *********************************
  Most Frequent Nonconverging Nodes
  *********************************
  Node CC-1 (17.93%)
  Node CC-2 (17.93%)
  Node JK-1 (17.93%)
  Node JK-2 (17.93%)
  Node WSC (17.93%)
  
  
  *************************
  Routing Time Step Summary
  *************************
  Minimum Time Step           :     0.06 sec
  Average Time Step           :     3.73 sec
  Maximum Time Step           :     7.04 sec
  % of Time in Steady State   :     0.00
  Average Iterations per Step :     3.42
  % of Steps Not Converging   :    17.93
  Time Step Frequencies       :
     30.000 - 13.228 sec      :     0.00 %
     13.228 -  5.833 sec      :    35.11 %
      5.833 -  2.572 sec      :    22.99 %
      2.572 -  1.134 sec      :    29.29 %
      1.134 -  0.500 sec      :    12.61 %
  
  
  ***************************
  Subcatchment Runoff Summary
  ***************************
  
  ------------------------------------------------------------------------------------------------------------------------------
                            Total      Total      Total      Total     Imperv       Perv      Total       Total     Peak  Runoff
                           Precip      Runon       Evap      Infil     Runoff     Runoff     Runoff      Runoff   Runoff   Coeff
  Subcatchment                 mm         mm         mm         mm         mm         mm         mm    10^6 ltr      LPS
  ------------------------------------------------------------------------------------------------------------------------------
  sub60                     36.11       0.00       0.00       1.26      23.60       2.09      25.69        0.34   246.18   0.711
  sub61                     36.11       0.00       0.00       1.93      23.58       3.10      26.67        0.49   351.79   0.739
  sub62                     36.11       0.00       0.00       0.86      25.13       1.42      26.55        0.73   483.18   0.735
  sub63                     36.11       0.00       0.00       3.50      20.19       5.08      25.27        0.57   377.63   0.700
  sub64                     36.11       0.00       0.00       1.68      22.99       2.54      25.52        0.61   376.00   0.707
  sub65                     36.11       0.00       0.00       1.54      24.80       2.31      27.12        0.75   435.45   0.751
  sub66                     36.11       0.00       0.00       4.03      19.50       4.28      23.78        1.11   525.78   0.659
  sub67                     36.11       0.00       0.00       0.86      25.77       1.47      27.25        0.51   396.18   0.754
  sub68                     36.11       0.00       0.00       1.48      22.76       2.37      25.13        0.69   479.26   0.696
  sub69                     36.11       0.00       0.00       1.30      24.25       2.99      27.24        1.01   576.79   0.754
  sub70                     36.11       0.00       0.00       4.31      19.41       5.75      25.15        0.73   306.67   0.697
  sub71                     36.11       0.00       0.00       0.79      22.82       1.28      24.10        0.63   387.46   0.667
  sub72                     36.11       0.00       0.00       0.75      24.64       1.18      25.82        0.36   192.60   0.715
  

  ***********************
  LID Performance Summary
  ***********************

  --------------------------------------------------------------------------------------------------------------------
                                         Total      Evap     Infil   Surface    Drain    Initial     Final  Continuity
                                        Inflow      Loss      Loss   Outflow   Outflow   Storage   Storage       Error
  Subcatchment      LID Control             mm        mm        mm        mm        mm        mm        mm           %
  --------------------------------------------------------------------------------------------------------------------
  sub60             GreenRoof            36.11      0.00      0.00      0.00      0.00      7.05     43.24       -0.18
  sub61             GreenRoof            36.11      0.00      0.00      0.00      0.00      7.05     43.24       -0.18
  sub62             GreenRoof            36.11      0.00      0.00      0.00      0.00      7.05     43.24       -0.18
  sub63             GreenRoof            36.11      0.00      0.00      0.00      0.00      7.05     43.24       -0.18
  sub64             GreenRoof            36.11      0.00      0.00      0.00      0.00      7.05     43.24       -0.18
  sub65             GreenRoof            36.11      0.00      0.00      0.00      0.00      7.05     43.24       -0.18
  sub66             GreenRoof            36.11      0.00      0.00      0.00      0.00      7.05     43.24       -0.18
  sub67             GreenRoof            36.11      0.00      0.00      0.00      0.00      7.05     43.24       -0.18
  sub68             GreenRoof            36.11      0.00      0.00      0.00      0.00      7.05     43.24       -0.18
  sub69             GreenRoof            36.11      0.00      0.00      0.00      0.00      7.05     43.24       -0.18
  sub70             GreenRoof            36.11      0.00      0.00      0.00      0.00      7.05     43.24       -0.18
  sub71             GreenRoof            36.11      0.00      0.00      0.00      0.00      7.05     43.24       -0.18
  sub72             GreenRoof            36.11      0.00      0.00      0.00      0.00      7.05     43.24       -0.18
  
  ******************
  Node Depth Summary
  ******************
  
  ---------------------------------------------------------------------------------
                                 Average  Maximum  Maximum  Time of Max    Reported
                                   Depth    Depth      HGL   Occurrence   Max Depth
  Node                 Type       Meters   Meters   Meters  days hr:min      Meters
  ---------------------------------------------------------------------------------
  WS02001211           JUNCTION     0.60     0.64     5.48     0  02:57        0.64
  WS02001212           JUNCTION     0.33     0.38     5.45     0  02:56        0.38
  WS02001213           JUNCTION     0.53     0.65     5.41     0  02:56        0.65
  WS02003059           JUNCTION     0.59     0.72     5.40     0  02:55        0.72
  WS02003060           JUNCTION     0.30     0.45     5.39     0  02:52        0.45
  WS02003066           JUNCTION     0.16     0.30     5.85     0  02:54        0.30
  WS02003067           JUNCTION     0.43     0.70     6.02     0  02:54        0.70
  WS02003069           JUNCTION     0.33     0.51     5.10     0  02:55        0.51
  WS02003072           JUNCTION     0.40     0.58     4.95     0  02:56        0.58
  WS02003073           JUNCTION     0.23     0.35     4.41     0  02:56        0.35
  WS02004138           JUNCTION     0.13     0.14     7.39     0  00:29        0.14
  WS02004139           JUNCTION     0.54     0.58     5.49     0  02:58        0.58
  WS02004401           JUNCTION     0.52     0.88     6.88     0  02:52        0.88
  WS02004402           JUNCTION     0.56     0.90     6.86     0  02:35        0.90
  WS02004403           JUNCTION     0.58     0.92     6.85     0  02:52        0.92
  WS02004404           JUNCTION     0.65     1.04     6.89     0  02:52        1.00
  WS02004405           JUNCTION     0.64     0.97     6.82     0  02:48        0.97
  WS02004406           JUNCTION     0.66     0.96     6.79     0  02:44        0.96
  WS02004407           JUNCTION     0.14     0.30     6.61     0  02:52        0.30
  WS02004409           JUNCTION     0.31     0.67     6.44     0  02:52        0.67
  WS02004410           JUNCTION     0.34     0.68     6.40     0  02:53        0.68
  WS02004411           JUNCTION     0.36     0.69     6.37     0  02:53        0.69
  WS02004412           JUNCTION     0.38     0.70     6.34     0  02:53        0.70
  WS02004413           JUNCTION     0.54     0.86     6.33     0  02:53        0.86
  WS02006109           JUNCTION     0.57     1.21     7.83     0  02:07        1.00
  WS02006110           JUNCTION     0.58     1.25     7.83     0  02:07        0.97
  WS02006111           JUNCTION     0.14     0.29     6.99     0  02:24        0.29
  WS02006112           JUNCTION     0.67     1.10     6.98     0  02:13        1.07
  WS02006113           JUNCTION     0.21     0.46     7.35     0  02:03        0.45
  WS02006115           JUNCTION     0.41     0.77     6.91     0  02:48        0.77
  WS02006116           JUNCTION     0.49     0.86     6.90     0  02:48        0.86
  WS02006228           JUNCTION     0.56     1.31     7.96     0  02:13        1.03
  WS02006229           JUNCTION     0.54     1.37     8.07     0  02:13        1.03
  WS02006230           JUNCTION     0.53     1.64     8.38     0  02:13        1.16
  WS02006231           JUNCTION     0.33     1.34     8.46     0  02:13        0.92
  WS02006232           JUNCTION     0.46     1.49     8.53     0  02:12        1.13
  WS02006234           JUNCTION     0.39     1.62     8.78     0  02:12        1.16
  WS02006235           JUNCTION     0.43     1.84     9.00     0  02:12        1.26
  WS02006238           JUNCTION     0.46     1.89     9.03     0  02:12        1.31
  WS02006239           JUNCTION     0.42     1.80     9.01     0  02:12        1.33
  WS02006240           JUNCTION     0.41     1.67     8.96     0  02:12        1.32
  WS02006242           JUNCTION     0.46     1.55     8.82     0  02:06        1.39
  WS02006243           JUNCTION     0.40     1.40     8.82     0  02:12        1.28
  WS02006245           JUNCTION     0.41     1.33     8.81     0  02:12        1.23
  WS02006247           JUNCTION     0.42     1.27     8.77     0  02:12        1.21
  WS02006248           JUNCTION     0.40     1.10     8.69     0  02:00        1.10
  WS02006249           JUNCTION     0.42     1.09     8.69     0  01:59        1.09
  WS02006251           JUNCTION     0.42     1.53     9.20     0  02:12        1.45
  WS02006252           JUNCTION     0.27     1.50     9.74     0  00:00        1.01
  WS02006256           JUNCTION     0.97     2.35     9.28     0  00:00        2.35
  WSF200               JUNCTION     0.13     0.31     5.54     0  02:52        0.31
  YS02001580           JUNCTION     0.08     1.05     9.59     0  01:49        0.74
  YS02001583           JUNCTION     0.12     1.14     9.64     0  01:50        0.79
  YS02001586           JUNCTION     0.19     1.13     9.30     0  01:49        1.11
  YS02001590           JUNCTION     0.28     1.40     9.26     0  01:48        1.33
  YS02001593           JUNCTION     0.22     1.46     9.32     0  01:48        1.28
  YS02001596           JUNCTION     0.30     1.78     9.20     0  01:48        1.72
  YS02001600           JUNCTION     0.37     1.87     9.00     0  01:48        1.87
  YS02001601           JUNCTION     0.56     2.06     8.90     0  01:48        2.06
  YS02001602           JUNCTION     0.47     1.87     8.77     0  01:49        1.87
  YS02001605           JUNCTION     0.43     1.78     8.68     0  01:50        1.78
  YS02001607           JUNCTION     0.42     1.65     8.50     0  01:50        1.65
  YS02001610           JUNCTION     0.46     1.68     8.48     0  01:50        1.68
  YS02001613           JUNCTION     0.42     1.70     8.54     0  01:50        1.65
  YS02001616           JUNCTION     0.35     1.61     8.52     0  01:50        1.57
  YS02001619           JUNCTION     0.33     1.61     8.54     0  01:50        1.55
  YS02001622           JUNCTION     0.32     1.62     8.52     0  01:50        1.54
  YS02001625           JUNCTION     0.57     1.78     8.38     0  01:50        1.78
  YS02001629           JUNCTION     0.44     1.85     8.40     0  01:50        1.80
  YS02001633           JUNCTION     0.51     1.86     8.31     0  01:52        1.82
  YS02001641           JUNCTION     0.48     1.63     8.07     0  01:56        1.61
  YS02001644           JUNCTION     0.47     1.56     7.99     0  01:56        1.55
  YS02001647           JUNCTION     0.25     1.26     7.87     0  01:54        1.25
  YS02001649           JUNCTION     0.30     1.35     7.74     0  01:57        1.34
  YS02001652           JUNCTION     0.19     1.31     7.90     0  01:54        1.13
  YS02001655           JUNCTION     0.13     0.89     7.74     0  01:57        0.88
  YS02001658           JUNCTION     0.08     0.58     7.72     0  01:57        0.54
  YS02001661           JUNCTION     0.12     0.33     7.73     0  01:51        0.33
  YS02001664           JUNCTION     0.05     0.23     8.16     0  01:51        0.23
  YS02001745           JUNCTION     0.05     0.21     7.73     0  01:50        0.21
  YS02001748           JUNCTION     0.07     0.48     7.56     0  01:56        0.43
  YS02001751           JUNCTION     0.10     0.71     7.59     0  01:56        0.71
  YS02001754           JUNCTION     0.16     1.00     7.60     0  01:57        0.97
  YS02001757           JUNCTION     0.31     1.33     7.59     0  01:57        1.33
  YS02001759           JUNCTION     0.26     1.25     7.62     0  01:54        1.23
  YS02001762           JUNCTION     0.25     1.29     7.69     0  01:54        1.19
  YS02001765           JUNCTION     0.23     1.20     7.65     0  01:54        1.13
  YS02001767           JUNCTION     0.22     1.13     7.62     0  01:56        1.09
  YS02001770           JUNCTION     0.23     1.15     7.64     0  01:53        1.08
  YS02001774           JUNCTION     0.29     1.20     7.62     0  01:56        1.14
  YS02001779           JUNCTION     0.13     0.94     7.63     0  01:56        0.88
  YS02001783           JUNCTION     0.23     1.19     7.34     0  01:55        1.15
  YS02001784           JUNCTION     0.25     1.09     7.15     0  01:55        1.05
  YS02001786           JUNCTION     0.21     0.86     6.89     0  01:55        0.83
  YS02001788           JUNCTION     0.15     0.60     6.58     0  01:56        0.60
  YS02001790           JUNCTION     0.18     0.70     6.35     0  01:56        0.70
  YS02001791           JUNCTION     0.12     0.42     5.89     0  01:55        0.41
  YS02001793           JUNCTION     0.06     0.28     5.11     0  01:56        0.27
  YS02001882           JUNCTION     0.29     1.83     8.55     0  01:51        1.51
  YS02001884           JUNCTION     0.37     1.88     8.50     0  01:51        1.61
  YS02001887           JUNCTION     0.45     1.90     8.44     0  01:51        1.69
  YS02001890           JUNCTION     0.48     1.81     8.32     0  01:54        1.71
  YS02001895           JUNCTION     0.26     1.57     8.32     0  01:54        1.47
  YS02001898           JUNCTION     0.26     1.57     8.30     0  01:54        1.47
  YS02001901           JUNCTION     0.37     1.67     8.28     0  01:54        1.59
  YS02001904           JUNCTION     0.35     1.64     8.27     0  01:54        1.56
  YS02001907           JUNCTION     0.66     1.96     8.25     0  01:54        1.91
  YS02001910           JUNCTION     0.46     2.10     8.61     0  01:51        1.72
  YS02001915           JUNCTION     0.28     2.00     8.72     0  01:51        1.53
  YS02001918           JUNCTION     0.14     1.81     8.88     0  01:54        1.20
  YS02001920           JUNCTION     0.22     1.64     8.65     0  01:54        1.27
  YS02001923           JUNCTION     0.10     1.04     8.30     0  01:56        1.02
  YS02001926           JUNCTION     0.13     0.86     8.31     0  01:55        0.83
  YS02001929           JUNCTION     0.06     0.61     8.30     0  01:55        0.56
  YS02006553           JUNCTION     0.67     1.94     8.22     0  01:54        1.90
  YS02006556           JUNCTION     0.64     1.87     8.18     0  01:54        1.83
  YS02006558           JUNCTION     0.68     1.90     8.16     0  01:55        1.86
  YS02006561           JUNCTION     0.14     0.85     7.51     0  01:55        0.80
  YS02163301           JUNCTION     0.46     1.83     8.34     0  01:54        1.80
  YS02163601           JUNCTION     0.54     1.79     8.19     0  01:54        1.76
  YS02164001           JUNCTION     0.47     1.66     8.12     0  01:54        1.65
  CC-1                 OUTFALL      0.00     0.00     0.00     0  00:00        0.00
  CC-2                 OUTFALL      0.00     0.00     0.00     0  00:00        0.00
  JK-1                 OUTFALL      0.00     0.00     0.00     0  00:00        0.00
  JK-2                 OUTFALL      0.00     0.00     0.00     0  00:00        0.00
  WSC                  OUTFALL      0.23     0.35     1.02     0  02:56        0.35
  CC-storage           STORAGE      0.81     1.40     6.90     0  02:08        1.40
  JK-storage           STORAGE      2.46     4.22     5.02     0  02:00        4.21
  XR-storage           STORAGE      7.82     9.26     7.26     0  08:00        9.26
  
  
  *******************
  Node Inflow Summary
  *******************
  
  -------------------------------------------------------------------------------------------------
                                  Maximum  Maximum                  Lateral       Total        Flow
                                  Lateral    Total  Time of Max      Inflow      Inflow     Balance
                                   Inflow   Inflow   Occurrence      Volume      Volume       Error
  Node                 Type           LPS      LPS  days hr:min    10^6 ltr    10^6 ltr     Percent
  -------------------------------------------------------------------------------------------------
  WS02001211           JUNCTION      7.35   200.41     0  03:00       0.212        5.44       0.611
  WS02001212           JUNCTION      0.00   202.61     0  03:00           0        5.41       0.290
  WS02001213           JUNCTION      0.00   204.00     0  03:39           0        5.39       0.331
  WS02003059           JUNCTION      0.00   208.94     0  03:40           0        5.38       0.592
  WS02003060           JUNCTION     16.53   752.97     0  02:52       0.476        8.89       0.158
  WS02003066           JUNCTION      0.00   538.30     0  02:54           0        3.06       0.040
  WS02003067           JUNCTION      0.00   538.23     0  02:54           0        3.06       0.131
  WS02003069           JUNCTION      0.32   752.71     0  02:52     0.00922        8.87       0.167
  WS02003072           JUNCTION      0.00   752.47     0  02:55           0        8.86       0.228
  WS02003073           JUNCTION      1.82   754.16     0  02:56      0.0524        8.89       0.234
  WS02004138           JUNCTION      0.00   380.00     0  00:00           0        5.25       0.053
  WS02004139           JUNCTION      0.32   191.16     0  00:29     0.00924        5.26       0.509
  WS02004401           JUNCTION      0.00   539.42     0  02:35           0        3.16       0.312
  WS02004402           JUNCTION      0.00   541.66     0  02:36           0        3.15       0.319
  WS02004403           JUNCTION      0.00   540.87     0  02:51           0        3.14       0.307
  WS02004404           JUNCTION      0.16   559.19     0  02:52     0.00467        3.13       0.185
  WS02004405           JUNCTION      0.04   603.49     0  02:28      0.0011        3.13       0.362
  WS02004406           JUNCTION      0.00   544.74     0  02:52           0        3.12       0.650
  WS02004407           JUNCTION      0.00   540.10     0  02:52           0         3.1       0.028
  WS02004409           JUNCTION      0.00   539.36     0  02:52           0         3.1       0.072
  WS02004410           JUNCTION      0.00   538.84     0  02:52           0        3.09       0.126
  WS02004411           JUNCTION      0.00   538.45     0  02:53           0        3.09       0.165
  WS02004412           JUNCTION      0.00   538.49     0  02:53           0        3.08       0.226
  WS02004413           JUNCTION      0.00   538.45     0  02:53           0        3.08       0.407
  WS02006109           JUNCTION      1.23   562.98     0  02:13      0.0354         3.2       0.286
  WS02006110           JUNCTION      0.00   563.73     0  02:13           0        3.19       0.209
  WS02006111           JUNCTION      0.00   560.50     0  02:21           0        3.18       0.020
  WS02006112           JUNCTION      0.00   544.22     0  02:24           0        3.18       0.540
  WS02006113           JUNCTION      0.00   570.48     0  02:07           0        3.18       0.052
  WS02006115           JUNCTION      0.00   552.05     0  03:06           0        3.16       0.194
  WS02006116           JUNCTION      0.00   541.23     0  02:27           0        3.16       0.056
  WS02006228           JUNCTION      0.00   561.37     0  02:13           0        3.17       0.126
  WS02006229           JUNCTION      0.00   560.45     0  02:13           0        3.17       0.122
  WS02006230           JUNCTION     10.28   591.25     0  02:01       0.296        3.18       0.126
  WS02006231           JUNCTION      0.00   572.03     0  03:15           0        2.88      -0.033
  WS02006232           JUNCTION      0.00   571.18     0  03:15           0        2.89       0.236
  WS02006234           JUNCTION      0.00   566.45     0  02:17           0        2.88      -0.190
  WS02006235           JUNCTION      0.00   562.77     0  02:01           0        2.92       0.182
  WS02006238           JUNCTION      0.00   426.60     0  02:10           0        2.18      -0.129
  WS02006239           JUNCTION      0.00   424.85     0  02:10           0        2.16      -0.087
  WS02006240           JUNCTION      0.00   420.67     0  02:10           0        2.14      -0.060
  WS02006242           JUNCTION      0.00   420.67     0  03:02           0        2.13      -0.132
  WS02006243           JUNCTION      0.00   420.20     0  02:10           0        2.12      -0.093
  WS02006245           JUNCTION      0.00   420.80     0  02:10           0        2.13       0.382
  WS02006247           JUNCTION      0.00   421.00     0  02:10           0        2.13       0.025
  WS02006248           JUNCTION      0.00   421.28     0  02:10           0        2.13       0.077
  WS02006249           JUNCTION      0.00   458.97     0  00:00           0        2.35       0.226
  WS02006251           JUNCTION      0.08   406.19     0  02:12     0.00222        2.35      -0.028
  WS02006252           JUNCTION      0.00   400.00     0  00:00           0        2.34      -0.010
  WS02006256           JUNCTION      0.00   300.00     0  00:00           0        1.12      -0.648
  WSF200               JUNCTION      0.00   538.36     0  02:54           0        3.06       0.015
  YS02001580           JUNCTION      0.00   190.74     0  01:49           0     0.00433      -4.611
  YS02001583           JUNCTION      0.00   255.81     0  01:50           0      0.0142     -13.009
  YS02001586           JUNCTION    306.67   306.88     0  01:54       0.726       0.738       0.236
  YS02001590           JUNCTION      0.00   306.93     0  01:54           0       0.723      -0.046
  YS02001593           JUNCTION      0.00   306.85     0  01:54           0       0.723       0.011
  YS02001596           JUNCTION      0.00   306.87     0  01:54           0       0.723      -0.036
  YS02001600           JUNCTION      0.00   306.97     0  01:54           0       0.723       0.015
  YS02001601           JUNCTION    576.79   877.94     0  01:52        1.01        1.73       0.029
  YS02001602           JUNCTION      0.00   583.42     0  01:49           0        1.45       0.021
  YS02001605           JUNCTION      0.00   583.40     0  01:49           0        1.43       0.019
  YS02001607           JUNCTION      0.00   583.06     0  01:49           0        1.43       0.124
  YS02001610           JUNCTION      0.00   557.52     0  01:49           0        1.43       0.157
  YS02001613           JUNCTION      0.00   520.37     0  01:49           0        1.42       0.095
  YS02001616           JUNCTION      0.00   492.02     0  02:05           0        1.42       0.015
  YS02001619           JUNCTION    525.78   930.37     0  01:50        1.11        2.53      -0.007
  YS02001622           JUNCTION      0.00   926.37     0  01:50           0        2.53      -0.006
  YS02001625           JUNCTION      0.00   923.78     0  01:50           0        2.53       0.343
  YS02001629           JUNCTION      0.00   919.30     0  01:50           0        2.52       0.024
  YS02001633           JUNCTION    435.65  1351.48     0  01:52       0.752        3.27       0.100
  YS02001641           JUNCTION      0.00  1351.45     0  01:52           0        3.27       0.082
  YS02001644           JUNCTION    376.04  1726.98     0  01:52       0.614        3.88       0.083
  YS02001647           JUNCTION      0.00  1727.13     0  01:52           0        3.87       0.011
  YS02001649           JUNCTION      0.00  2090.28     0  01:52           0        4.45       0.009
  YS02001652           JUNCTION      0.00   443.34     0  01:51           0       0.576      -0.377
  YS02001655           JUNCTION      0.15   456.83     0  01:57     0.00443       0.577       0.220
  YS02001658           JUNCTION      0.00   376.87     0  01:51           0       0.573       0.002
  YS02001661           JUNCTION      0.00   377.43     0  01:51           0       0.573       0.053
  YS02001664           JUNCTION    377.63   377.63     0  01:51       0.573       0.573      -0.016
  YS02001745           JUNCTION    246.19   246.19     0  01:50       0.337       0.337       0.246
  YS02001748           JUNCTION      0.04   246.64     0  01:50      0.0013       0.338      -0.264
  YS02001751           JUNCTION      0.01   275.29     0  01:58    0.000317       0.339       0.441
  YS02001754           JUNCTION      0.26   339.75     0  01:56     0.00749       0.346      -0.674
  YS02001757           JUNCTION      0.00  2667.63     0  01:52           0        6.03       0.074
  YS02001759           JUNCTION    351.83   721.97     0  01:54        0.49        1.24      -0.011
  YS02001762           JUNCTION      0.00   438.88     0  01:54           0       0.745       0.012
  YS02001765           JUNCTION      0.00   447.79     0  01:54           0       0.746       0.017
  YS02001767           JUNCTION      0.54   458.13     0  01:54      0.0154       0.746       0.012
  YS02001770           JUNCTION    483.33   483.33     0  01:51       0.731       0.775      -0.015
  YS02001774           JUNCTION      0.00   137.70     0  01:51           0      0.0697       1.592
  YS02001779           JUNCTION      0.01    88.52     0  01:53    0.000144      0.0249      -0.165
  YS02001783           JUNCTION      0.00  1124.53     0  01:55           0        2.24       0.009
  YS02001784           JUNCTION      1.06  1125.69     0  01:55      0.0305        2.27       0.021
  YS02001786           JUNCTION      0.06  1126.12     0  01:55     0.00162        2.27       0.029
  YS02001788           JUNCTION      0.07  1127.55     0  01:55     0.00204        2.27       0.014
  YS02001790           JUNCTION      0.15  1129.88     0  01:56     0.00446        2.27       0.030
  YS02001791           JUNCTION      0.00  1230.17     0  01:55           0        2.27      -0.013
  YS02001793           JUNCTION      0.00  1200.23     0  01:56           0        2.27       0.010
  YS02001882           JUNCTION      0.00    65.44     0  01:51           0      0.0125       4.882
  YS02001884           JUNCTION      0.00   103.80     0  01:50           0      0.0483       5.241
  YS02001887           JUNCTION    396.63   406.73     0  01:51       0.519       0.552       0.789
  YS02001890           JUNCTION      0.00   409.72     0  01:51           0       0.512       0.984
  YS02001895           JUNCTION      0.00   410.03     0  01:51           0       0.507       0.305
  YS02001898           JUNCTION      0.00   393.60     0  01:51           0       0.505       0.061
  YS02001901           JUNCTION      0.00   404.35     0  01:51           0       0.508       0.618
  YS02001904           JUNCTION      0.00   405.40     0  01:51           0       0.514       0.531
  YS02001907           JUNCTION      0.00   786.15     0  01:57           0        1.58       1.132
  YS02001910           JUNCTION      0.00   600.85     0  02:00           0        1.07       0.649
  YS02001915           JUNCTION    387.48   600.01     0  02:00        0.63        1.09       0.127
  YS02001918           JUNCTION      0.00   330.58     0  01:51           0       0.464       0.054
  YS02001920           JUNCTION      2.87   301.47     0  01:59      0.0827       0.451       0.209
  YS02001923           JUNCTION      0.04   291.69     0  01:52     0.00109       0.362      -0.116
  YS02001926           JUNCTION      0.05   274.98     0  01:52      0.0015       0.358       0.142
  YS02001929           JUNCTION    192.60   192.60     0  01:52       0.355       0.355      -0.011
  YS02006553           JUNCTION      0.00   787.19     0  01:57           0        1.57       0.751
  YS02006556           JUNCTION      0.00   786.85     0  01:57           0        1.58       0.503
  YS02006558           JUNCTION    480.14  1127.87     0  01:53       0.716        2.27       0.145
  YS02006561           JUNCTION      0.00  1128.52     0  01:53           0        2.24      -0.001
  YS02163301           JUNCTION      0.00   915.98     0  01:52           0        2.52       0.055
  YS02163601           JUNCTION      0.11  1351.53     0  01:52     0.00317        3.27       0.147
  YS02164001           JUNCTION      0.00  1351.54     0  01:52           0        3.27       0.070
  CC-1                 OUTFALL       0.00   683.00     0  00:00           0        3.74       0.000
  CC-2                 OUTFALL       0.00   683.00     0  00:00           0       0.547       0.000
  JK-1                 OUTFALL       0.00  1000.00     0  00:00           0        1.06       0.000
  JK-2                 OUTFALL       0.00  1000.00     0  00:00           0      0.0484       0.000
  WSC                  OUTFALL       0.00   754.05     0  02:56           0        8.87       0.000
  CC-storage           STORAGE       0.00  2624.19     0  01:53           0        8.25      -0.286
  JK-storage           STORAGE       0.00  1179.35     0  01:56           0        2.42       0.311
  XR-storage           STORAGE     200.00   200.00     0  00:00        5.76        6.36       0.001
  
  
  **********************
  Node Surcharge Summary
  **********************
  
  Surcharging occurs when water rises above the top of the highest conduit.
  ---------------------------------------------------------------------
                                               Max. Height   Min. Depth
                                   Hours       Above Crown    Below Rim
  Node                 Type      Surcharged         Meters       Meters
  ---------------------------------------------------------------------
  WS02004404           JUNCTION        0.04          0.041        2.739
  WS02006109           JUNCTION        1.46          0.392        1.428
  WS02006110           JUNCTION        0.70          0.336        1.514
  WS02006112           JUNCTION        0.78          0.096        1.584
  WS02006228           JUNCTION        1.46          0.483        1.717
  WS02006229           JUNCTION        1.46          0.573        1.877
  WS02006230           JUNCTION        0.73          0.559        1.011
  WS02006231           JUNCTION        0.83          0.629        0.901
  WS02006232           JUNCTION        1.49          0.789        0.691
  WS02006234           JUNCTION        1.24          0.899        0.341
  WS02006235           JUNCTION        1.43          1.130        0.160
  WS02006238           JUNCTION        1.46          1.170        0.260
  WS02006239           JUNCTION        1.45          1.059        0.231
  WS02006240           JUNCTION        1.46          0.955        0.435
  WS02006242           JUNCTION        1.47          0.820        0.000
  WS02006243           JUNCTION        1.46          0.694        0.076
  WS02006245           JUNCTION        1.45          0.616        0.234
  WS02006247           JUNCTION        1.45          0.561        0.199
  WS02006248           JUNCTION        1.45          0.380        0.000
  WS02006249           JUNCTION        1.44          0.390        0.000
  WS02006251           JUNCTION        0.91          0.501        0.679
  WS02006252           JUNCTION        1.59          1.100        0.000
  WS02006256           JUNCTION        2.62          2.050        0.000
  YS02001580           JUNCTION        0.19          0.450        0.000
  YS02001583           JUNCTION        0.19          0.500        0.000
  YS02001586           JUNCTION        0.33          0.510        0.000
  YS02001590           JUNCTION        0.39          0.750        0.000
  YS02001593           JUNCTION        0.39          0.840        0.000
  YS02001596           JUNCTION        0.47          1.046        0.024
  YS02001600           JUNCTION        0.55          1.190        0.000
  YS02001601           JUNCTION        0.82          1.440        0.000
  YS02001602           JUNCTION        0.73          1.270        0.000
  YS02001605           JUNCTION        0.69          1.180        0.000
  YS02001607           JUNCTION        0.34          0.654        0.026
  YS02001610           JUNCTION        0.36          0.680        0.000
  YS02001613           JUNCTION        0.34          0.700        0.000
  YS02001616           JUNCTION        0.31          0.610        0.000
  YS02001619           JUNCTION        0.29          0.610        0.000
  YS02001622           JUNCTION        0.28          0.620        0.000
  YS02001625           JUNCTION        0.43          0.780        0.000
  YS02001629           JUNCTION        0.23          0.470        0.000
  YS02001633           JUNCTION        0.44          0.838        0.222
  YS02001641           JUNCTION        0.38          0.629        0.471
  YS02001644           JUNCTION        0.36          0.559        0.361
  YS02001647           JUNCTION        0.16          0.260        0.640
  YS02001649           JUNCTION        0.25          0.348        0.702
  YS02001652           JUNCTION        0.06          0.277        0.853
  YS02001757           JUNCTION        0.29          0.327        0.883
  YS02001759           JUNCTION        0.18          0.253        0.957
  YS02001762           JUNCTION        0.15          0.287        0.863
  YS02001765           JUNCTION        0.12          0.198        0.902
  YS02001767           JUNCTION        0.09          0.132        0.898
  YS02001770           JUNCTION        0.06          0.120        0.800
  YS02001774           JUNCTION        0.14          0.199        0.851
  YS02001783           JUNCTION        0.23          0.394        1.206
  YS02001784           JUNCTION        0.20          0.287        1.203
  YS02001786           JUNCTION        0.09          0.059        1.371
  YS02001882           JUNCTION        0.18          0.830        0.000
  YS02001884           JUNCTION        0.19          0.825        0.045
  YS02001887           JUNCTION        0.22          0.852        0.098
  YS02001890           JUNCTION        0.23          0.760        0.000
  YS02001895           JUNCTION        0.17          0.570        0.180
  YS02001898           JUNCTION        0.16          0.537        0.203
  YS02001901           JUNCTION        0.21          0.673        0.197
  YS02001904           JUNCTION        0.20          0.635        0.215
  YS02001907           JUNCTION        0.37          0.950        0.000
  YS02001910           JUNCTION        0.25          1.100        0.000
  YS02001915           JUNCTION        0.17          1.000        0.000
  YS02001918           JUNCTION        0.08          0.810        0.000
  YS02001920           JUNCTION        0.10          0.641        0.499
  YS02006553           JUNCTION        0.38          0.938        0.252
  YS02006556           JUNCTION        0.31          0.829        0.521
  YS02006558           JUNCTION        0.30          0.795        0.605
  YS02006561           JUNCTION        0.02          0.051        1.099
  YS02163301           JUNCTION        0.43          0.825        0.205
  YS02163601           JUNCTION        0.46          0.790        0.290
  YS02164001           JUNCTION        0.40          0.662        0.438
  
  
  *********************
  Node Flooding Summary
  *********************
  
  Flooding refers to all water that overflows a node, whether it ponds or not.
  --------------------------------------------------------------------------
                                                             Total   Maximum
                                 Maximum   Time of Max       Flood    Ponded
                        Hours       Rate    Occurrence      Volume     Depth
  Node                 Flooded       LPS   days hr:min    10^6 ltr    Meters
  --------------------------------------------------------------------------
  WS02006242              0.01      9.38      0  02:06       0.000     0.000
  WS02006248              0.01     17.30      0  02:00       0.000     0.000
  WS02006249              0.87    102.26      0  01:59       0.208     0.000
  WS02006252              0.01    245.63      0  00:00       0.000     0.000
  WS02006256              1.03    293.19      0  00:00       0.371     0.000
  YS02001580              0.01    107.88      0  01:49       0.001     0.000
  YS02001583              0.01    153.32      0  01:50       0.000     0.000
  YS02001586              0.02    132.90      0  01:50       0.003     0.000
  YS02001590              0.01     56.72      0  01:48       0.000     0.000
  YS02001593              0.01     74.85      0  01:48       0.000     0.000
  YS02001600              0.01     10.28      0  01:48       0.000     0.000
  YS02001601              0.27    479.86      0  01:52       0.276     0.000
  YS02001602              0.16     61.92      0  01:56       0.023     0.000
  YS02001605              0.01      6.68      0  01:50       0.000     0.000
  YS02001610              0.07     95.14      0  01:50       0.004     0.000
  YS02001613              0.01     43.29      0  01:50       0.000     0.000
  YS02001616              0.01     49.31      0  01:50       0.000     0.000
  YS02001619              0.01     48.11      0  01:50       0.000     0.000
  YS02001622              0.01    144.64      0  01:50       0.000     0.000
  YS02001625              0.02    110.65      0  01:50       0.001     0.000
  YS02001629              0.01    320.00      0  01:50       0.002     0.000
  YS02001882              0.01     41.42      0  01:51       0.000     0.000
  YS02001890              0.01     12.50      0  01:54       0.000     0.000
  YS02001907              0.01     13.80      0  01:54       0.000     0.000
  YS02001910              0.01     42.41      0  01:51       0.000     0.000
  YS02001915              0.01    143.64      0  01:51       0.000     0.000
  YS02001918              0.01     46.28      0  01:54       0.000     0.000
  
  
  **********************
  Storage Volume Summary
  **********************
  
  ------------------------------------------------------------------------------------------------
                         Average    Avg   Evap  Exfil     Maximum    Max    Time of Max    Maximum
                          Volume   Pcnt   Pcnt   Pcnt      Volume   Pcnt     Occurrence    Outflow
  Storage Unit           1000 m³   Full   Loss   Loss     1000 m³   Full    days hr:min        LPS
  ------------------------------------------------------------------------------------------------
  CC-storage               2.247   35.1    0.0    0.0       3.902   60.9       0  02:08    1783.53
  JK-storage               0.124   42.4    0.0    0.0       0.212   72.8       0  02:00    2300.00
  XR-storage               0.938   65.2    0.0    0.0       1.111   77.2       0  08:00     380.00
  
  
  ***********************
  Outfall Loading Summary
  ***********************
  
  -----------------------------------------------------------
                         Flow       Avg       Max       Total
                         Freq      Flow      Flow      Volume
  Outfall Node           Pcnt       LPS       LPS    10^6 ltr
  -----------------------------------------------------------
  CC-1                  36.19    683.00    683.00       3.737
  CC-2                   5.82    683.00    683.00       0.547
  JK-1                  10.67   1000.00   1000.00       1.055
  JK-2                   0.27   1000.00   1000.00       0.048
  WSC                   99.92    377.26    754.05       8.869
  -----------------------------------------------------------
  System                30.58   3743.26   3366.23      14.257
  
  
  ********************
  Link Flow Summary
  ********************
  
  -----------------------------------------------------------------------------
                                 Maximum  Time of Max   Maximum    Max/    Max/
                                  |Flow|   Occurrence   |Veloc|    Full    Full
  Link                 Type          LPS  days hr:min     m/sec    Flow   Depth
  -----------------------------------------------------------------------------
  1                    CONDUIT    754.05     0  02:56      3.08    0.26    0.35
  WS02001211WS02001212 CONDUIT    202.61     0  03:00      0.54    0.15    0.51
  WS02001212WS02001213 CONDUIT    204.00     0  03:39      1.04    0.31    0.36
  WS02001213WS02003059 CONDUIT    208.94     0  03:40      0.47    0.34    0.67
  WS02003059WS02003060 CONDUIT    216.01     0  03:39      0.67    0.14    0.59
  WS02003060WS02003069 CONDUIT    752.39     0  02:52      1.77    0.29    0.40
  WS02003066WSF200     CONDUIT    538.36     0  02:54      2.74    0.09    0.23
  WS02003067WS02003066 CONDUIT    538.30     0  02:54      1.21    0.17    0.42
  WS02003069WS02003072 CONDUIT    752.47     0  02:55      1.51    0.36    0.45
  WS02003072WS02003073 CONDUIT    752.34     0  02:56      1.60    1.62    0.43
  WS02004138WS02004139 CONDUIT    190.84     0  00:29      2.17    0.04    0.33
  WS02004139WS02001211 CONDUIT    193.06     0  03:00      0.54    0.24    0.47
  WS02004401WS02004402 CONDUIT    541.66     0  02:36      0.97    0.65    0.89
  WS02004402WS02004403 CONDUIT    540.87     0  02:51      0.97    0.78    0.91
  WS02004403WS02004404 CONDUIT    559.03     0  02:52      0.92    0.40    0.96
  WS02004404WS02004405 CONDUIT    603.45     0  02:28      1.08    5.91    0.98
  WS02004405WS02004406 CONDUIT    544.74     0  02:52      0.99    1.07    0.96
  WS02004406WS02004407 CONDUIT    540.10     0  02:52      1.04    0.24    0.63
  WS02004407WS02004409 CONDUIT    539.36     0  02:52      1.59    0.19    0.48
  WS02004409WS02004410 CONDUIT    538.84     0  02:52      1.04    0.70    0.68
  WS02004410WS02004411 CONDUIT    538.45     0  02:53      1.01    0.74    0.69
  WS02004411WS02004412 CONDUIT    538.49     0  02:53      0.94    0.76    0.69
  WS02004412WS02004413 CONDUIT    538.45     0  02:53      0.82    0.36    0.78
  WS02004413WS02003067 CONDUIT    538.23     0  02:54      1.11    0.23    0.59
  WS02006109WS02006110 CONDUIT    563.73     0  02:13      1.12    1.08    1.00
  WS02006110WS02006113 CONDUIT    570.48     0  02:07      1.38    0.52    0.79
  WS02006111WS02006112 CONDUIT    544.22     0  02:24      1.82    0.26    0.67
  WS02006112WS02006115 CONDUIT    552.05     0  03:06      0.87    0.33    0.88
  WS02006113WS02006111 CONDUIT    560.50     0  02:21      2.46    0.67    0.46
  WS02006115WS02006116 CONDUIT    541.23     0  02:27      1.14    0.69    0.78
  WS02006116WS02004401 CONDUIT    539.42     0  02:35      0.98    0.74    0.87
  WS02006228WS02006109 CONDUIT    561.75     0  02:13      1.12    2.45    1.00
  WS02006229WS02006228 CONDUIT    561.37     0  02:13      1.15    1.86    1.00
  WS02006230WS02006229 CONDUIT    560.45     0  02:13      1.46   12.47    1.00
  WS02006231WS02006230 CONDUIT    580.97     0  02:01      1.61    8.81    1.00
  WS02006232WS02006231 CONDUIT    572.03     0  03:15      1.49    1.20    1.00
  WS02006234WS02006232 CONDUIT    571.18     0  03:15      1.48    1.16    1.00
  WS02006235WS02006234 CONDUIT    566.45     0  02:17      1.47    5.98    1.00
  WS02006238WS02006235 CONDUIT    428.81     0  02:10      1.57    0.96    1.00
  WS02006239WS02006238 CONDUIT    426.60     0  02:10      1.11    1.37    1.00
  WS02006240WS02006239 CONDUIT    424.85     0  02:10      1.24    1.34    1.00
  WS02006242WS02006240 CONDUIT    420.67     0  02:10      1.12    1.67    1.00
  WS02006243WS02006242 CONDUIT    420.67     0  03:02      1.39    0.90    1.00
  WS02006245WS02006243 CONDUIT    420.20     0  02:10      1.45    1.24    1.00
  WS02006247WS02006245 CONDUIT    420.80     0  02:10      1.44    3.34    1.00
  WS02006248WS02006247 CONDUIT    421.00     0  02:10      1.45    0.92    1.00
  WS02006249WS02006248 CONDUIT    421.28     0  02:10      1.37    2.31    1.00
  WS02006251WS02006249 CONDUIT    458.97     0  00:00      1.99    1.32    1.00
  WS02006252WS02006251 CONDUIT    406.11     0  02:12     25.11    1.49    1.00
  WS02006256WS02006235 CONDUIT    289.23     0  01:51      4.23    3.06    1.00
  WSF200WS02003060     CONDUIT    538.70     0  02:52      1.75    0.12    0.32
  YS02001580YS02001583 CONDUIT    190.74     0  01:49      0.93    0.74    1.00
  YS02001583YS02001586 CONDUIT    203.11     0  01:49      0.95    0.31    1.00
  YS02001586YS02001590 CONDUIT    306.93     0  01:54      1.33    0.54    1.00
  YS02001590YS02001593 CONDUIT    306.85     0  01:54      1.09    1.93    1.00
  YS02001593YS02001596 CONDUIT    306.87     0  01:54      1.71    0.48    1.00
  YS02001596YS02001600 CONDUIT    306.97     0  01:54      1.19    0.60    1.00
  YS02001600YS02001601 CONDUIT    306.86     0  01:54      1.09    0.53    1.00
  YS02001601YS02001602 CONDUIT    583.42     0  01:49      2.06    2.11    1.00
  YS02001602YS02001605 CONDUIT    583.40     0  01:49      2.06   12.35    1.00
  YS02001605YS02001607 CONDUIT    583.06     0  01:49      2.06    3.20    1.00
  YS02001607YS02001610 CONDUIT    557.52     0  01:49      0.74    0.53    1.00
  YS02001610YS02001613 CONDUIT    520.37     0  01:49      0.70    0.60    1.00
  YS02001613YS02001616 CONDUIT    492.02     0  02:05      0.69    0.42    1.00
  YS02001616YS02001619 CONDUIT    493.90     0  02:05      0.67    0.86    1.00
  YS02001619YS02001622 CONDUIT    926.37     0  01:50      1.35    1.37    1.00
  YS02001622YS02001625 CONDUIT    923.78     0  01:50      1.18    0.49    1.00
  YS02001625YS02001629 CONDUIT    919.30     0  01:50      1.17    0.44    1.00
  YS02001629YS02163301 CONDUIT    915.98     0  01:52      1.17    1.13    1.00
  YS02001633YS02163601 CONDUIT   1351.42     0  01:52      1.72    1.42    1.00
  YS02001641YS02001644 CONDUIT   1351.73     0  01:52      1.72    4.37    1.00
  YS02001644YS02001647 CONDUIT   1727.13     0  01:52      2.27    1.01    1.00
  YS02001647YS02001649 CONDUIT   1743.94     0  01:52      2.35    0.92    1.00
  YS02001649YS02001757 CONDUIT   2083.61     0  01:52      2.66    1.26    1.00
  YS02001652YS02001649 CONDUIT    457.55     0  01:52      0.83    0.23    1.00
  YS02001655YS02001652 CONDUIT    443.34     0  01:51      1.62    0.22    0.95
  YS02001658YS02001655 CONDUIT    456.67     0  01:57      2.06    0.19    0.69
  YS02001661YS02001658 CONDUIT    376.87     0  01:51      2.24    0.15    0.40
  YS02001664YS02001661 CONDUIT    377.43     0  01:51      2.08    0.12    0.28
  YS02001745YS02001748 CONDUIT    246.59     0  01:50      2.08    0.09    0.29
  YS02001748YS02001751 CONDUIT    275.28     0  01:58      1.75    0.14    0.57
  YS02001751YS02001754 CONDUIT    339.49     0  01:56      1.65    0.16    0.79
  YS02001754YS02001757 CONDUIT    268.55     0  01:58      0.63    0.11    1.00
  YS02001757CaochengTiaoxuchi CONDUIT   2624.19     0  01:53      3.35    1.14    1.00
  YS02001759YS02001757 CONDUIT    722.62     0  01:54      1.06    0.51    1.00
  YS02001762YS02001759 CONDUIT    439.78     0  01:54      0.57    0.51    1.00
  YS02001765YS02001762 CONDUIT    438.88     0  01:54      0.73    0.41    1.00
  YS02001767YS02001765 CONDUIT    447.79     0  01:54      0.89    0.56    1.00
  YS02001770YS02001767 CONDUIT    457.60     0  01:54      0.95    1.81    1.00
  YS02001774YS02001770 CONDUIT    137.70     0  01:51      0.24    0.09    1.00
  YS02001779YS02001774 CONDUIT     88.51     0  01:53      0.14    0.04    0.97
  YS02001783YS02001784 CONDUIT   1124.63     0  01:55      2.24    1.55    1.00
  YS02001784YS02001785 CONDUIT   1126.06     0  01:55      2.24    2.62    1.00
  YS02001786YS02001788 CONDUIT   1127.48     0  01:55      2.42    2.17    0.88
  YS02001788YS02001790 CONDUIT   1129.72     0  01:56      2.67    0.83    0.82
  YS02001790YS02001791 CONDUIT   1230.17     0  01:55      3.36    1.34    0.69
  YS02001791YS02001793 CONDUIT   1200.23     0  01:56      6.59    0.52    0.43
  YS02001793JiankangQianchi CONDUIT   1179.35     0  01:56      2.34    0.09    0.64
  YS02001882YS02001884 CONDUIT     65.44     0  01:51      0.11    0.08    1.00
  YS02001884YS02001887 CONDUIT    103.80     0  01:50      0.13    0.14    1.00
  YS02001887YS02001890 CONDUIT    409.72     0  01:51      0.52    0.70    1.00
  YS02001890YS02001895 CONDUIT    410.03     0  01:51      0.52    0.19    1.00
  YS02001895YS02001898 CONDUIT    393.60     0  01:51      0.50    0.68    1.00
  YS02001898YS02001901 CONDUIT    404.35     0  01:51      0.51    0.26    1.00
  YS02001901YS02001904 CONDUIT    405.40     0  01:51      0.52    0.63    1.00
  YS02001904YS02001907 CONDUIT    407.91     0  01:51      0.52    0.14    1.00
  YS02001907YS02006553 CONDUIT    787.19     0  01:57      0.87    0.93    1.00
  YS02001910YS02001907 CONDUIT    600.68     0  02:00      0.76    0.34    1.00
  YS02001915YS02001910 CONDUIT    600.85     0  02:00      0.77    0.30    1.00
  YS02001918YS02001915 CONDUIT    354.85     0  02:00      0.49    0.20    1.00
  YS02001920YS02001918 CONDUIT    321.99     0  01:59      0.69    0.31    1.00
  YS02001923YS02001920 CONDUIT    298.60     0  01:59      0.84    0.13    1.00
  YS02001926YS02001923 CONDUIT    290.68     0  01:56      0.97    0.42    0.82
  YS02001929YS02001926 CONDUIT    258.82     0  01:55      1.08    0.12    0.70
  YS02006553YS02006556 CONDUIT    786.85     0  01:57      1.00    0.67    1.00
  YS02006556YS02006558 CONDUIT    789.35     0  01:57      1.01    0.62    1.00
  YS02006558YS02006561 CONDUIT   1128.52     0  01:53      3.99    2.49    1.00
  YS02006561YS02001783 CONDUIT   1124.53     0  01:55      2.28    0.58    1.00
  YS02163301YS02001633 CONDUIT    916.15     0  01:52      1.17    0.86    1.00
  YS02163601YS02164001 CONDUIT   1351.54     0  01:52      1.72    1.20    1.00
  YS02164001YS02001641 CONDUIT   1351.45     0  01:52      1.72    1.85    1.00
  CC-R1                PUMP       683.00     0  00:00              1.00
  CC-R2                PUMP       683.00     0  00:00              1.00
  CC-S1                PUMP       200.00     0  00:00              1.00
  CC-S2                PUMP       200.00     0  00:00              1.00
  JK-R1                PUMP      1000.00     0  00:00              1.00
  JK-R2                PUMP      1000.00     0  00:00              1.00
  JK-S                 PUMP       300.00     0  00:00              1.00
  XR-1                 PUMP        95.00     0  00:00              1.00
  XR-2                 PUMP        95.00     0  00:00              1.00
  XR-3                 PUMP        95.00     0  00:00              1.00
  XR-4                 PUMP        95.00     0  00:00              1.00
  
  
  ***************************
  Flow Classification Summary
  ***************************
  
  -------------------------------------------------------------------------------------
                      Adjusted    ---------- Fraction of Time in Flow Class ---------- 
                       /Actual         Up    Down  Sub   Sup   Up    Down  Norm  Inlet 
  Conduit               Length    Dry  Dry   Dry   Crit  Crit  Crit  Crit  Ltd   Ctrl  
  -------------------------------------------------------------------------------------
  1                       1.00   0.00  0.00  0.00  0.00  1.00  0.00  0.00  0.13  0.00
  WS02001211WS02001212    1.00   0.00  0.02  0.00  0.98  0.00  0.00  0.00  0.00  0.00
  WS02001212WS02001213    1.00   0.02  0.00  0.00  0.20  0.00  0.78  0.00  0.00  0.00
  WS02001213WS02003059    1.00   0.00  0.01  0.00  0.99  0.00  0.00  0.00  0.00  0.00
  WS02003059WS02003060    1.00   0.00  0.00  0.00  1.00  0.00  0.00  0.00  0.03  0.00
  WS02003060WS02003069    1.00   0.00  0.00  0.00  0.98  0.02  0.00  0.00  0.74  0.00
  WS02003066WSF200        1.00   0.13  0.00  0.00  0.00  0.87  0.00  0.00  0.76  0.00
  WS02003067WS02003066    1.00   0.10  0.02  0.00  0.88  0.00  0.00  0.00  0.00  0.00
  WS02003069WS02003072    1.00   0.00  0.00  0.00  1.00  0.00  0.00  0.00  0.78  0.00
  WS02003072WS02003073    1.00   0.00  0.00  0.00  0.00  0.00  0.00  1.00  0.00  0.00
  WS02004138WS02004139    1.00   0.00  0.00  0.00  0.97  0.01  0.00  0.02  0.98  0.00
  WS02004139WS02001211    1.00   0.00  0.00  0.00  0.99  0.00  0.00  0.00  0.00  0.00
  WS02004401WS02004402    1.00   0.02  0.00  0.00  0.98  0.00  0.00  0.00  0.00  0.00
  WS02004402WS02004403    1.00   0.02  0.00  0.00  0.97  0.00  0.00  0.00  0.00  0.00
  WS02004403WS02004404    1.00   0.00  0.03  0.00  0.97  0.00  0.00  0.00  0.00  0.00
  WS02004404WS02004405    1.00   0.00  0.00  0.00  1.00  0.00  0.00  0.00  0.00  0.00
  WS02004405WS02004406    1.00   0.00  0.00  0.00  1.00  0.00  0.00  0.00  0.00  0.00
  WS02004406WS02004407    1.00   0.00  0.05  0.00  0.95  0.00  0.00  0.00  0.00  0.00
  WS02004407WS02004409    1.00   0.05  0.00  0.00  0.94  0.01  0.00  0.00  0.94  0.00
  WS02004409WS02004410    1.00   0.05  0.00  0.00  0.95  0.00  0.00  0.00  0.03  0.00
  WS02004410WS02004411    1.00   0.05  0.00  0.00  0.95  0.00  0.00  0.00  0.01  0.00
  WS02004411WS02004412    1.00   0.05  0.00  0.00  0.95  0.00  0.00  0.00  0.00  0.00
  WS02004412WS02004413    1.00   0.05  0.00  0.00  0.94  0.00  0.00  0.00  0.01  0.00
  WS02004413WS02003067    1.00   0.06  0.04  0.00  0.00  0.00  0.90  0.00  0.00  0.00
  WS02006109WS02006110    1.00   0.00  0.01  0.00  0.98  0.00  0.01  0.00  0.00  0.00
  WS02006110WS02006113    1.00   0.01  0.01  0.00  0.98  0.00  0.00  0.00  0.00  0.00
  WS02006111WS02006112    1.00   0.02  0.00  0.00  0.98  0.00  0.00  0.00  0.98  0.00
  WS02006112WS02006115    1.00   0.02  0.00  0.00  0.97  0.00  0.00  0.00  0.00  0.00
  WS02006113WS02006111    1.00   0.02  0.00  0.00  0.00  0.98  0.00  0.00  0.08  0.00
  WS02006115WS02006116    1.00   0.02  0.00  0.00  0.97  0.00  0.00  0.01  0.00  0.00
  WS02006116WS02004401    1.00   0.02  0.00  0.00  0.98  0.00  0.00  0.00  0.00  0.00
  WS02006228WS02006109    1.00   0.00  0.00  0.00  1.00  0.00  0.00  0.00  0.00  0.00
  WS02006229WS02006228    1.00   0.00  0.00  0.00  0.99  0.00  0.00  0.01  0.00  0.00
  WS02006230WS02006229    1.00   0.00  0.00  0.00  0.99  0.00  0.00  0.01  0.00  0.00
  WS02006231WS02006230    1.00   0.00  0.00  0.00  0.19  0.00  0.81  0.00  0.00  0.00
  WS02006232WS02006231    1.00   0.00  0.00  0.00  0.99  0.00  0.01  0.00  0.00  0.00
  WS02006234WS02006232    1.00   0.00  0.00  0.00  1.00  0.00  0.00  0.00  0.58  0.00
  WS02006235WS02006234    1.00   0.00  0.00  0.00  0.39  0.00  0.61  0.00  0.00  0.00
  WS02006238WS02006235    1.00   0.00  0.00  0.00  1.00  0.00  0.00  0.00  0.00  0.00
  WS02006239WS02006238    1.00   0.00  0.00  0.00  1.00  0.00  0.00  0.00  0.67  0.00
  WS02006240WS02006239    1.00   0.00  0.00  0.00  0.29  0.00  0.00  0.71  0.01  0.00
  WS02006242WS02006240    1.00   0.00  0.00  0.00  1.00  0.00  0.00  0.00  0.00  0.00
  WS02006243WS02006242    1.00   0.00  0.00  0.00  0.99  0.00  0.00  0.01  0.76  0.00
  WS02006245WS02006243    1.00   0.00  0.00  0.00  0.34  0.00  0.00  0.66  0.00  0.00
  WS02006247WS02006245    1.00   0.00  0.00  0.00  0.99  0.00  0.00  0.01  0.00  0.00
  WS02006248WS02006247    1.00   0.00  0.00  0.00  0.99  0.00  0.00  0.01  0.12  0.00
  WS02006249WS02006248    1.00   0.00  0.00  0.00  0.23  0.00  0.77  0.00  0.00  0.00
  WS02006251WS02006249    1.00   0.00  0.00  0.00  1.00  0.00  0.00  0.00  0.77  0.00
  WS02006252WS02006251    1.00   0.00  0.79  0.00  0.11  0.00  0.09  0.00  0.57  0.00
  WS02006256WS02006235    1.00   0.00  0.00  0.00  1.00  0.00  0.00  0.00  0.00  0.00
  WSF200WS02003060        1.00   0.00  0.13  0.00  0.69  0.18  0.00  0.00  0.68  0.00
  YS02001580YS02001583    1.00   0.23  0.63  0.00  0.14  0.00  0.00  0.00  0.73  0.00
  YS02001583YS02001586    1.00   0.52  0.28  0.00  0.19  0.00  0.00  0.00  0.73  0.00
  YS02001586YS02001590    1.00   0.13  0.00  0.00  0.33  0.04  0.00  0.50  0.32  0.00
  YS02001590YS02001593    1.00   0.13  0.01  0.00  0.06  0.00  0.80  0.00  0.00  0.00
  YS02001593YS02001596    1.00   0.14  0.00  0.00  0.07  0.01  0.00  0.79  0.01  0.00
  YS02001596YS02001600    1.00   0.14  0.00  0.00  0.12  0.02  0.00  0.72  0.05  0.00
  YS02001600YS02001601    1.00   0.13  0.01  0.00  0.86  0.00  0.00  0.00  0.66  0.00
  YS02001601YS02001602    1.00   0.13  0.02  0.00  0.86  0.00  0.00  0.00  0.00  0.00
  YS02001602YS02001605    1.00   0.14  0.00  0.00  0.86  0.00  0.00  0.00  0.00  0.00
  YS02001605YS02001607    1.00   0.14  0.00  0.00  0.86  0.00  0.00  0.00  0.00  0.00
  YS02001607YS02001610    1.00   0.13  0.01  0.00  0.85  0.00  0.00  0.00  0.02  0.00
  YS02001610YS02001613    1.00   0.13  0.00  0.00  0.87  0.00  0.00  0.00  0.01  0.00
  YS02001613YS02001616    1.00   0.13  0.00  0.00  0.87  0.00  0.00  0.00  0.01  0.00
  YS02001616YS02001619    1.00   0.13  0.00  0.00  0.87  0.00  0.00  0.00  0.00  0.00
  YS02001619YS02001622    1.00   0.13  0.00  0.00  0.87  0.00  0.00  0.00  0.38  0.00
  YS02001622YS02001625    1.00   0.13  0.00  0.00  0.87  0.00  0.00  0.00  0.06  0.00
  YS02001625YS02001629    1.00   0.13  0.07  0.00  0.09  0.00  0.72  0.00  0.00  0.00
  YS02001629YS02163301    1.00   0.17  0.01  0.00  0.82  0.00  0.00  0.00  0.00  0.00
  YS02001633YS02163601    1.00   0.00  0.01  0.00  0.99  0.00  0.00  0.00  0.16  0.00
  YS02001641YS02001644    1.00   0.00  0.01  0.00  0.99  0.00  0.00  0.00  0.00  0.00
  YS02001644YS02001647    1.00   0.00  0.19  0.00  0.81  0.00  0.00  0.00  0.00  0.00
  YS02001647YS02001649    1.00   0.00  0.19  0.00  0.57  0.24  0.00  0.00  0.61  0.00
  YS02001649YS02001757    1.00   0.00  0.00  0.00  0.76  0.24  0.00  0.00  0.57  0.00
  YS02001652YS02001649    1.00   0.00  0.00  0.00  0.96  0.04  0.00  0.00  0.81  0.00
  YS02001655YS02001652    1.00   0.00  0.00  0.00  0.12  0.01  0.00  0.87  0.06  0.00
  YS02001658YS02001655    1.00   0.00  0.15  0.00  0.63  0.23  0.00  0.00  0.76  0.00
  YS02001661YS02001658    1.00   0.15  0.00  0.00  0.48  0.37  0.00  0.00  0.78  0.00
  YS02001664YS02001661    1.00   0.13  0.00  0.00  0.79  0.09  0.00  0.00  0.87  0.00
  YS02001745YS02001748    1.00   0.00  0.00  0.00  0.02  0.01  0.00  0.97  0.03  0.00
  YS02001748YS02001751    1.00   0.00  0.00  0.00  0.82  0.18  0.00  0.00  0.82  0.00
  YS02001751YS02001754    1.00   0.00  0.00  0.00  0.11  0.00  0.00  0.89  0.05  0.00
  YS02001754YS02001757    1.00   0.00  0.00  0.00  1.00  0.00  0.00  0.00  0.88  0.00
  YS02001757CaochengTiaoxuchi    1.00   0.00  0.00  0.00  1.00  0.00  0.00  0.00  0.85  0.00
  YS02001759YS02001757    1.00   0.00  0.00  0.00  1.00  0.00  0.00  0.00  0.66  0.00
  YS02001762YS02001759    1.00   0.00  0.00  0.00  1.00  0.00  0.00  0.00  0.05  0.00
  YS02001765YS02001762    1.00   0.00  0.00  0.00  1.00  0.00  0.00  0.00  0.80  0.00
  YS02001767YS02001765    1.00   0.00  0.00  0.00  1.00  0.00  0.00  0.00  0.00  0.00
  YS02001770YS02001767    1.00   0.00  0.00  0.00  1.00  0.00  0.00  0.00  0.00  0.00
  YS02001774YS02001770    1.00   0.00  0.14  0.00  0.58  0.00  0.28  0.00  0.04  0.00
  YS02001779YS02001774    1.00   0.00  0.00  0.00  1.00  0.00  0.00  0.00  0.85  0.00
  YS02001783YS02001784    1.00   0.00  0.20  0.00  0.80  0.00  0.00  0.00  0.59  0.00
  YS02001784YS02001785    1.00   0.00  0.00  0.00  1.00  0.00  0.00  0.00  0.19  0.00
  YS02001786YS02001788    1.00   0.00  0.00  0.00  0.81  0.19  0.00  0.00  0.00  0.00
  YS02001788YS02001790    1.00   0.00  0.00  0.00  0.21  0.79  0.00  0.00  0.89  0.00
  YS02001790YS02001791    1.00   0.00  0.00  0.00  0.01  0.99  0.00  0.00  0.15  0.00
  YS02001791YS02001793    1.00   0.00  0.00  0.00  0.00  1.00  0.00  0.00  0.00  0.00
  YS02001793JiankangQianchi    1.00   0.00  0.00  0.00  1.00  0.00  0.00  0.00  0.98  0.00
  YS02001882YS02001884    1.00   0.16  0.01  0.00  0.82  0.00  0.00  0.00  0.00  0.00
  YS02001884YS02001887    1.00   0.06  0.05  0.00  0.89  0.00  0.00  0.00  0.00  0.00
  YS02001887YS02001890    1.00   0.00  0.00  0.00  0.97  0.00  0.03  0.00  0.00  0.00
  YS02001890YS02001895    1.00   0.00  0.18  0.00  0.82  0.00  0.00  0.00  0.00  0.00
  YS02001895YS02001898    1.00   0.18  0.00  0.00  0.80  0.00  0.02  0.00  0.00  0.00
  YS02001898YS02001901    1.00   0.18  0.00  0.00  0.81  0.00  0.00  0.00  0.01  0.00
  YS02001901YS02001904    1.00   0.18  0.00  0.00  0.82  0.00  0.00  0.00  0.00  0.00
  YS02001904YS02001907    1.00   0.00  0.18  0.00  0.82  0.00  0.00  0.00  0.00  0.00
  YS02001907YS02006553    1.00   0.00  0.02  0.00  0.98  0.00  0.00  0.00  0.00  0.00
  YS02001910YS02001907    1.00   0.00  0.00  0.00  0.97  0.00  0.00  0.03  0.12  0.00
  YS02001915YS02001910    1.00   0.00  0.00  0.00  0.97  0.03  0.00  0.00  0.18  0.00
  YS02001918YS02001915    1.00   0.00  0.01  0.00  0.98  0.02  0.00  0.00  0.80  0.00
  YS02001920YS02001918    1.00   0.00  0.01  0.00  0.99  0.00  0.00  0.00  0.00  0.00
  YS02001923YS02001920    1.00   0.00  0.00  0.00  1.00  0.00  0.00  0.00  0.96  0.00
  YS02001926YS02001923    1.00   0.00  0.07  0.00  0.02  0.00  0.90  0.00  0.00  0.00
  YS02001929YS02001926    1.00   0.00  0.13  0.00  0.87  0.00  0.00  0.00  0.86  0.00
  YS02006553YS02006556    1.00   0.01  0.00  0.00  0.99  0.00  0.00  0.00  0.03  0.00
  YS02006556YS02006558    1.00   0.00  0.00  0.00  1.00  0.00  0.00  0.00  0.00  0.00
  YS02006558YS02006561    1.00   0.20  0.00  0.00  0.02  0.78  0.00  0.00  0.18  0.00
  YS02006561YS02001783    1.00   0.20  0.00  0.00  0.04  0.76  0.00  0.00  0.73  0.00
  YS02163301YS02001633    1.00   0.00  0.17  0.00  0.83  0.00  0.00  0.00  0.00  0.00
  YS02163601YS02164001    1.00   0.00  0.08  0.00  0.92  0.00  0.00  0.00  0.00  0.00
  YS02164001YS02001641    1.00   0.01  0.07  0.00  0.92  0.00  0.00  0.00  0.06  0.00
  
  
  *************************
  Conduit Surcharge Summary
  *************************
  
  ----------------------------------------------------------------------------
                                                           Hours        Hours 
                         --------- Hours Full --------   Above Full   Capacity
  Conduit                Both Ends  Upstream  Dnstream   Normal Flow   Limited
  ----------------------------------------------------------------------------
  WS02003072WS02003073        0.01      0.01      0.01      1.55         0.01
  WS02004403WS02004404        0.01      0.01      0.04      0.01         0.01
  WS02004404WS02004405        0.01      0.04      0.01      1.74         0.01
  WS02004405WS02004406        0.01      0.01      0.01      0.62         0.01
  WS02006109WS02006110        0.70      0.70      1.48      0.81         0.01
  WS02006110WS02006113        0.01      0.01      1.47      0.01         0.01
  WS02006111WS02006112        0.01      0.01      1.54      0.01         0.01
  WS02006112WS02006115        0.01      0.01      0.77      0.01         0.01
  WS02006228WS02006109        1.46      1.48      1.46      1.57         1.46
  WS02006229WS02006228        1.46      1.46      1.46      1.52         1.44
  WS02006230WS02006229        1.49      1.51      1.49      2.04         1.49
  WS02006231WS02006230        0.73      0.73      0.88      1.90         0.01
  WS02006232WS02006231        0.82      0.82      1.49      0.91         0.01
  WS02006234WS02006232        1.41      1.41      1.49      0.89         0.90
  WS02006235WS02006234        1.24      1.24      1.43      1.82         0.02
  WS02006238WS02006235        1.44      1.44      1.49      0.01         0.01
  WS02006239WS02006238        1.46      1.48      1.46      1.48         1.34
  WS02006240WS02006239        1.45      1.47      1.45      1.49         1.30
  WS02006242WS02006240        1.46      1.46      1.48      1.56         0.01
  WS02006243WS02006242        1.46      1.46      1.47      0.01         0.05
  WS02006245WS02006243        1.45      1.45      1.46      0.79         0.67
  WS02006247WS02006245        1.45      1.45      1.45      1.64         1.45
  WS02006248WS02006247        1.45      1.45      1.45      0.01         0.05
  WS02006249WS02006248        1.44      1.44      1.44      1.63         0.01
  WS02006251WS02006249        1.44      1.44      1.44      1.55         1.36
  WS02006252WS02006251        1.59      1.59      1.59      1.59         0.01
  WS02006256WS02006235        1.83      1.86      2.60      1.03         0.01
  YS02001580YS02001583        0.19      0.19      0.23      0.01         0.01
  YS02001583YS02001586        0.19      0.19      0.33      0.01         0.01
  YS02001586YS02001590        0.34      0.34      0.39      0.01         0.01
  YS02001590YS02001593        0.39      0.39      0.40      0.42         0.01
  YS02001593YS02001596        0.39      0.39      0.46      0.01         0.01
  YS02001596YS02001600        0.49      0.49      0.55      0.01         0.01
  YS02001600YS02001601        0.60      0.60      0.82      0.01         0.01
  YS02001601YS02001602        0.73      0.73      0.86      0.56         0.01
  YS02001602YS02001605        0.69      0.69      0.73      1.67         0.01
  YS02001605YS02001607        0.65      0.69      0.65      0.78         0.65
  YS02001607YS02001610        0.34      0.34      0.36      0.01         0.01
  YS02001610YS02001613        0.34      0.34      0.36      0.01         0.01
  YS02001613YS02001616        0.31      0.31      0.34      0.01         0.01
  YS02001616YS02001619        0.29      0.29      0.31      0.01         0.01
  YS02001619YS02001622        0.28      0.29      0.28      0.41         0.28
  YS02001622YS02001625        0.28      0.28      0.43      0.01         0.01
  YS02001625YS02001629        0.23      0.23      0.43      0.01         0.01
  YS02001629YS02163301        0.42      0.42      0.43      0.25         0.19
  YS02001633YS02163601        0.44      0.44      0.46      0.32         0.31
  YS02001641YS02001644        0.36      0.38      0.36      0.91         0.36
  YS02001644YS02001647        0.16      0.16      0.36      0.02         0.01
  YS02001647YS02001649        0.16      0.16      0.25      0.01         0.01
  YS02001649YS02001757        0.24      0.25      0.29      0.15         0.12
  YS02001652YS02001649        0.09      0.09      0.25      0.01         0.01
  YS02001655YS02001652        0.01      0.01      0.06      0.01         0.01
  YS02001754YS02001757        0.01      0.01      0.29      0.01         0.01
  YS02001757CaochengTiaoxuchi        0.26      0.29      1.06      0.14         0.08
  YS02001759YS02001757        0.18      0.18      0.29      0.01         0.01
  YS02001762YS02001759        0.15      0.15      0.18      0.01         0.01
  YS02001765YS02001762        0.12      0.12      0.15      0.01         0.01
  YS02001767YS02001765        0.09      0.09      0.12      0.01         0.01
  YS02001770YS02001767        0.09      0.09      0.09      0.26         0.05
  YS02001774YS02001770        0.06      0.06      0.14      0.01         0.01
  YS02001779YS02001774        0.01      0.01      0.14      0.01         0.01
  YS02001783YS02001784        0.20      0.23      0.20      0.33         0.20
  YS02001784YS02001785        0.09      0.20      0.09      0.46         0.09
  YS02001786YS02001788        0.01      0.09      0.01      0.39         0.01
  YS02001790YS02001791        0.01      0.01      0.01      0.19         0.01
  YS02001793JiankangQianchi        0.01      0.01      7.68      0.01         0.01
  YS02001882YS02001884        0.18      0.18      0.19      0.01         0.01
  YS02001884YS02001887        0.21      0.21      0.22      0.01         0.01
  YS02001887YS02001890        0.23      0.23      0.24      0.01         0.01
  YS02001890YS02001895        0.17      0.17      0.25      0.01         0.01
  YS02001895YS02001898        0.16      0.16      0.17      0.01         0.01
  YS02001898YS02001901        0.17      0.17      0.21      0.01         0.01
  YS02001901YS02001904        0.20      0.20      0.21      0.01         0.01
  YS02001904YS02001907        0.20      0.20      0.38      0.01         0.01
  YS02001907YS02006553        0.47      0.47      0.51      0.01         0.01
  YS02001910YS02001907        0.25      0.25      0.37      0.01         0.01
  YS02001915YS02001910        0.17      0.17      0.25      0.01         0.01
  YS02001918YS02001915        0.08      0.08      0.17      0.01         0.01
  YS02001920YS02001918        0.08      0.08      0.10      0.01         0.01
  YS02001923YS02001920        0.01      0.01      0.10      0.01         0.01
  YS02006553YS02006556        0.31      0.31      0.38      0.01         0.01
  YS02006556YS02006558        0.34      0.34      0.39      0.01         0.01
  YS02006558YS02006561        0.12      0.30      0.12      0.44         0.12
  YS02006561YS02001783        0.02      0.02      0.23      0.01         0.01
  YS02163301YS02001633        0.43      0.43      0.45      0.01         0.01
  YS02163601YS02164001        0.40      0.40      0.46      0.16         0.01
  YS02164001YS02001641        0.38      0.40      0.38      0.49         0.38
  
  
  ***************
  Pumping Summary
  ***************
  
  ---------------------------------------------------------------------------------------------------------
                                                  Min       Avg       Max     Total     Power    % Time Off
                        Percent   Number of      Flow      Flow      Flow    Volume     Usage    Pump Curve
  Pump                 Utilized   Start-Ups       LPS       LPS       LPS  10^6 ltr     Kw-hr    Low   High
  ---------------------------------------------------------------------------------------------------------
  CC-R1                   19.00           2      0.00    683.00    683.00     3.737     67.10    0.0   35.0
  CC-R2                    2.78           4      0.00    683.00    683.00     0.547      9.87    0.0   37.5
  CC-S1                   20.78           2      0.00    200.00    200.00     1.197      7.42    0.0    0.0
  CC-S2                   19.91           2      0.00    200.00    200.00     1.147      7.12    0.0    0.0
  JK-R1                    3.66           7      0.00   1000.00   1000.00     1.055     12.46    0.0    0.0
  JK-R2                    0.16           1      0.00   1000.00   1000.00     0.047      0.36    0.0    0.0
  JK-S                    12.92          13      0.00    300.00    300.00     1.116     16.49    0.0    0.0
  XR-1                    97.91           2      0.00     95.00     95.00     2.679      9.60    0.0    0.0
  XR-2                    93.94           2      0.00     95.00     95.00     2.570      8.76    0.0    0.0
  XR-3                     0.00           1      0.00     95.00     95.00     0.000      0.00    0.0    0.0
  XR-4                     0.00           1      0.00     95.00     95.00     0.000      0.00    0.0    0.0
  

  Analysis begun on:  Wed Nov  5 16:30:59 2025
  Analysis ended on:  Wed Nov  5 16:31:02 2025
  Total elapsed time: 00:00:03