
  EPA STORM WATER MANAGEMENT MODEL - VERSION 5.2 (Build 5.2.4)
  PYSWMM TOOLKIT API - VERSION v1.0 (2023-11-27)
  ------------------------------------------------------------

  WARNING 04: minimum elevation drop used for Conduit WS02004404WS02004405
  WARNING 03: negative offset ignored for Link YS02001904YS02001907
  
  ****************
  Analysis Options
  ****************
  Flow Units ............... LPS
  Process Models:
    Rainfall/Runoff ........ YES
    RDII ................... NO
    Snowmelt ............... NO
    Groundwater ............ NO
    Flow Routing ........... YES
    Ponding Allowed ........ NO
    Water Quality .......... NO
  Infiltration Method ...... HORTON
  Flow Routing Method ...... DYNWAVE
  Surcharge Method ......... EXTRAN
  Starting Date ............ 08/28/2015 08:00:00
  Ending Date .............. 08/28/2015 16:00:00
  Antecedent Dry Days ...... 8.0
  Report Time Step ......... 00:01:00
  Wet Time Step ............ 00:01:00
  Dry Time Step ............ 00:01:00
  Routing Time Step ........ 30.00 sec
  Variable Time Step ....... YES
  Maximum Trials ........... 8
  Number of Threads ........ 4
  Head Tolerance ........... 0.001500 m
  
  
  **************************        Volume         Depth
  Runoff Quantity Continuity     hectare-m            mm
  **************************     ---------       -------
  Initial LID Storage ......         0.049         1.488
  Total Precipitation ......         2.671        80.522
  Evaporation Loss .........         0.000         0.000
  Infiltration Loss ........         0.079         2.394
  Surface Runoff ...........         2.003        60.384
  Final Storage ............         0.639        19.255
  Continuity Error (%) .....        -0.028
  
  
  **************************        Volume        Volume
  Flow Routing Continuity        hectare-m      10^6 ltr
  **************************     ---------     ---------
  Dry Weather Inflow .......         0.602         6.020
  Wet Weather Inflow .......         2.003        20.028
  Groundwater Inflow .......         0.000         0.000
  RDII Inflow ..............         0.000         0.000
  External Inflow ..........         0.105         1.045
  External Outflow .........         2.079        20.792
  Flooding Loss ............         0.605         6.052
  Evaporation Loss .........         0.000         0.000
  Exfiltration Loss ........         0.000         0.000
  Initial Stored Volume ....         0.303         3.031
  Final Stored Volume ......         0.334         3.345
  Continuity Error (%) .....        -0.214
  
  
  *************************
  Highest Continuity Errors
  *************************
  Node YS02001583 (-5.55%)
  Node YS02001884 (5.29%)
  
  
  ***************************
  Time-Step Critical Elements
  ***************************
  Link WS02004404WS02004405 (40.76%)
  Link WS02006238WS02006235 (15.34%)
  Link YS02001791YS02001793 (10.97%)
  Link WS02006252WS02006251 (9.75%)
  Link WS02003066WSF200 (4.53%)
  
  
  ********************************
  Highest Flow Instability Indexes
  ********************************
  Link WS02006113WS02006111 (31)
  Link WS02006252WS02006251 (24)
  Link WS02004404WS02004405 (23)
  Link WS02004403WS02004404 (22)
  Link WS02006238WS02006235 (21)
  
  
  *********************************
  Most Frequent Nonconverging Nodes
  *********************************
  Node CC-1 (17.07%)
  Node CC-2 (17.07%)
  Node JK-1 (17.07%)
  Node JK-2 (17.07%)
  Node WSC (17.07%)
  
  
  *************************
  Routing Time Step Summary
  *************************
  Minimum Time Step           :     0.01 sec
  Average Time Step           :     3.26 sec
  Maximum Time Step           :     7.04 sec
  % of Time in Steady State   :     0.00
  Average Iterations per Step :     3.57
  % of Steps Not Converging   :    17.07
  Time Step Frequencies       :
     30.000 - 13.228 sec      :     0.00 %
     13.228 -  5.833 sec      :    24.61 %
      5.833 -  2.572 sec      :    22.85 %
      2.572 -  1.134 sec      :    34.81 %
      1.134 -  0.500 sec      :    17.73 %
  
  
  ***************************
  Subcatchment Runoff Summary
  ***************************
  
  ------------------------------------------------------------------------------------------------------------------------------
                            Total      Total      Total      Total     Imperv       Perv      Total       Total     Peak  Runoff
                           Precip      Runon       Evap      Infil     Runoff     Runoff     Runoff      Runoff   Runoff   Coeff
  Subcatchment                 mm         mm         mm         mm         mm         mm         mm    10^6 ltr      LPS
  ------------------------------------------------------------------------------------------------------------------------------
  sub60                     80.52       0.00       0.00       1.42      53.76       6.04      59.80        0.79   479.50   0.743
  sub61                     80.52       0.00       0.00       2.19      53.71       9.01      62.72        1.15   700.76   0.779
  sub62                     80.52       0.00       0.00       0.97      57.27       4.10      61.37        1.68   971.05   0.762
  sub63                     80.52       0.00       0.00       4.00      46.01      15.12      61.12        1.39   809.51   0.759
  sub64                     80.52       0.00       0.00       1.92      52.39       7.49      59.88        1.44   801.54   0.744
  sub65                     80.52       0.00       0.00       1.76      56.55       6.84      63.39        1.75   939.28   0.787
  sub66                     80.52       0.00       0.00       4.66      44.50      13.85      58.35        2.72  1257.24   0.725
  sub67                     80.52       0.00       0.00       0.96      58.70       4.23      62.94        1.17   742.27   0.782
  sub68                     80.52       0.00       0.00       1.68      51.85       6.91      58.76        1.62   962.45   0.730
  sub69                     80.52       0.00       0.00       1.55      54.16       8.02      62.18        2.30  1213.68   0.772
  sub70                     80.52       0.00       0.00       5.18      43.40      17.24      60.64        1.75   728.29   0.753
  sub71                     80.52       0.00       0.00       0.89      52.03       3.71      55.74        1.46   807.59   0.692
  sub72                     80.52       0.00       0.00       0.85      56.21       3.46      59.66        0.82   420.99   0.741
  

  ***********************
  LID Performance Summary
  ***********************

  --------------------------------------------------------------------------------------------------------------------
                                         Total      Evap     Infil   Surface    Drain    Initial     Final  Continuity
                                        Inflow      Loss      Loss   Outflow   Outflow   Storage   Storage       Error
  Subcatchment      LID Control             mm        mm        mm        mm        mm        mm        mm           %
  --------------------------------------------------------------------------------------------------------------------
  sub60             GreenRoof            80.52      0.00      0.00      0.00      0.00      7.05     87.62       -0.06
  sub61             GreenRoof            80.52      0.00      0.00      0.00      0.00      7.05     87.62       -0.06
  sub62             GreenRoof            80.52      0.00      0.00      0.00      0.00      7.05     87.62       -0.06
  sub63             GreenRoof            80.52      0.00      0.00      0.00      0.00      7.05     87.62       -0.06
  sub64             GreenRoof            80.52      0.00      0.00      0.00      0.00      7.05     87.62       -0.06
  sub65             GreenRoof            80.52      0.00      0.00      0.00      0.00      7.05     87.62       -0.06
  sub66             GreenRoof            80.52      0.00      0.00      0.00      0.00      7.05     87.62       -0.06
  sub67             GreenRoof            80.52      0.00      0.00      0.00      0.00      7.05     87.62       -0.06
  sub68             GreenRoof            80.52      0.00      0.00      0.00      0.00      7.05     87.62       -0.06
  sub69             GreenRoof            80.52      0.00      0.00      0.00      0.00      7.05     87.62       -0.06
  sub70             GreenRoof            80.52      0.00      0.00      0.00      0.00      7.05     87.62       -0.06
  sub71             GreenRoof            80.52      0.00      0.00      0.00      0.00      7.05     87.62       -0.06
  sub72             GreenRoof            80.52      0.00      0.00      0.00      0.00      7.05     87.62       -0.06
  
  ******************
  Node Depth Summary
  ******************
  
  ---------------------------------------------------------------------------------
                                 Average  Maximum  Maximum  Time of Max    Reported
                                   Depth    Depth      HGL   Occurrence   Max Depth
  Node                 Type       Meters   Meters   Meters  days hr:min      Meters
  ---------------------------------------------------------------------------------
  WS02001211           JUNCTION     0.60     0.64     5.48     0  03:27        0.64
  WS02001212           JUNCTION     0.34     0.38     5.45     0  03:26        0.38
  WS02001213           JUNCTION     0.54     0.65     5.41     0  03:26        0.65
  WS02003059           JUNCTION     0.60     0.72     5.40     0  03:25        0.72
  WS02003060           JUNCTION     0.31     0.45     5.39     0  03:25        0.45
  WS02003066           JUNCTION     0.17     0.30     5.85     0  03:25        0.30
  WS02003067           JUNCTION     0.45     0.70     6.02     0  03:24        0.70
  WS02003069           JUNCTION     0.35     0.51     5.10     0  03:26        0.51
  WS02003072           JUNCTION     0.41     0.58     4.95     0  03:26        0.58
  WS02003073           JUNCTION     0.24     0.35     4.41     0  03:27        0.35
  WS02004138           JUNCTION     0.13     0.14     7.39     0  00:29        0.14
  WS02004139           JUNCTION     0.54     0.58     5.49     0  03:28        0.58
  WS02004401           JUNCTION     0.55     0.88     6.88     0  03:08        0.88
  WS02004402           JUNCTION     0.59     0.90     6.86     0  03:10        0.90
  WS02004403           JUNCTION     0.61     0.92     6.85     0  03:18        0.92
  WS02004404           JUNCTION     0.68     1.02     6.87     0  02:21        1.00
  WS02004405           JUNCTION     0.67     0.97     6.82     0  03:10        0.97
  WS02004406           JUNCTION     0.68     0.96     6.79     0  03:06        0.96
  WS02004407           JUNCTION     0.15     0.30     6.61     0  03:23        0.30
  WS02004409           JUNCTION     0.34     0.67     6.44     0  03:23        0.67
  WS02004410           JUNCTION     0.36     0.68     6.40     0  03:24        0.68
  WS02004411           JUNCTION     0.39     0.69     6.37     0  03:24        0.69
  WS02004412           JUNCTION     0.41     0.70     6.34     0  03:24        0.70
  WS02004413           JUNCTION     0.56     0.86     6.33     0  03:24        0.86
  WS02006109           JUNCTION     0.61     1.36     7.98     0  02:51        1.16
  WS02006110           JUNCTION     0.61     1.90     8.48     0  02:51        1.17
  WS02006111           JUNCTION     0.16     0.29     6.99     0  02:57        0.29
  WS02006112           JUNCTION     0.70     1.10     6.99     0  02:42        1.07
  WS02006113           JUNCTION     0.24     0.46     7.35     0  02:28        0.46
  WS02006115           JUNCTION     0.44     0.77     6.91     0  03:06        0.77
  WS02006116           JUNCTION     0.52     0.85     6.89     0  03:11        0.85
  WS02006228           JUNCTION     0.60     1.32     7.97     0  02:51        1.12
  WS02006229           JUNCTION     0.58     1.31     8.01     0  02:41        1.16
  WS02006230           JUNCTION     0.59     1.55     8.29     0  02:41        1.20
  WS02006231           JUNCTION     0.39     1.37     8.49     0  02:10        1.28
  WS02006232           JUNCTION     0.52     1.53     8.57     0  02:27        1.53
  WS02006234           JUNCTION     0.46     1.60     8.76     0  02:00        1.48
  WS02006235           JUNCTION     0.51     1.52     8.68     0  02:05        1.49
  WS02006238           JUNCTION     0.53     1.56     8.70     0  02:05        1.52
  WS02006239           JUNCTION     0.50     1.52     8.73     0  02:05        1.45
  WS02006240           JUNCTION     0.48     1.53     8.82     0  02:00        1.35
  WS02006242           JUNCTION     0.53     1.55     8.82     0  02:00        1.36
  WS02006243           JUNCTION     0.46     1.42     8.84     0  02:00        1.22
  WS02006245           JUNCTION     0.47     1.29     8.78     0  02:00        1.17
  WS02006247           JUNCTION     0.48     1.25     8.75     0  02:00        1.21
  WS02006248           JUNCTION     0.45     1.10     8.69     0  01:57        1.10
  WS02006249           JUNCTION     0.48     1.09     8.69     0  01:52        1.09
  WS02006251           JUNCTION     0.48     1.49     9.16     0  02:50        1.24
  WS02006252           JUNCTION     0.31     1.50     9.74     0  00:00        0.79
  WS02006256           JUNCTION     1.12     2.35     9.28     0  00:00        2.35
  WSF200               JUNCTION     0.15     0.31     5.54     0  03:25        0.31
  YS02001580           JUNCTION     0.14     1.05     9.59     0  01:51        0.77
  YS02001583           JUNCTION     0.17     1.14     9.64     0  01:51        0.82
  YS02001586           JUNCTION     0.28     1.13     9.30     0  01:51        1.13
  YS02001590           JUNCTION     0.40     1.40     9.26     0  02:15        1.40
  YS02001593           JUNCTION     0.33     1.37     9.24     0  01:54        1.37
  YS02001596           JUNCTION     0.47     1.68     9.10     0  01:51        1.68
  YS02001600           JUNCTION     0.58     1.87     9.00     0  01:51        1.87
  YS02001601           JUNCTION     0.77     2.06     8.90     0  01:51        2.06
  YS02001602           JUNCTION     0.67     1.87     8.77     0  01:51        1.87
  YS02001605           JUNCTION     0.62     1.78     8.68     0  01:54        1.78
  YS02001607           JUNCTION     0.58     1.68     8.53     0  01:54        1.68
  YS02001610           JUNCTION     0.62     1.68     8.48     0  01:54        1.68
  YS02001613           JUNCTION     0.58     1.70     8.54     0  01:54        1.70
  YS02001616           JUNCTION     0.51     1.61     8.52     0  01:54        1.61
  YS02001619           JUNCTION     0.49     1.61     8.54     0  01:54        1.61
  YS02001622           JUNCTION     0.48     1.59     8.49     0  01:56        1.59
  YS02001625           JUNCTION     0.73     1.78     8.38     0  01:54        1.78
  YS02001629           JUNCTION     0.63     1.85     8.40     0  01:54        1.85
  YS02001633           JUNCTION     0.71     2.08     8.53     0  01:54        2.08
  YS02001641           JUNCTION     0.68     2.04     8.47     0  02:15        1.94
  YS02001644           JUNCTION     0.67     1.92     8.35     0  01:56        1.92
  YS02001647           JUNCTION     0.45     1.79     8.40     0  02:00        1.73
  YS02001649           JUNCTION     0.51     2.05     8.44     0  02:00        1.96
  YS02001652           JUNCTION     0.39     1.98     8.57     0  02:00        1.79
  YS02001655           JUNCTION     0.29     1.93     8.78     0  01:56        1.57
  YS02001658           JUNCTION     0.21     1.71     8.85     0  02:00        1.31
  YS02001661           JUNCTION     0.21     1.61     9.01     0  02:00        1.07
  YS02001664           JUNCTION     0.08     0.53     8.45     0  02:00        0.50
  YS02001745           JUNCTION     0.11     0.79     8.31     0  02:00        0.78
  YS02001748           JUNCTION     0.20     1.56     8.64     0  01:57        1.22
  YS02001751           JUNCTION     0.25     1.68     8.56     0  01:57        1.41
  YS02001754           JUNCTION     0.34     1.96     8.57     0  01:57        1.67
  YS02001757           JUNCTION     0.53     2.10     8.36     0  01:57        2.01
  YS02001759           JUNCTION     0.47     2.08     8.45     0  02:00        2.08
  YS02001762           JUNCTION     0.46     2.08     8.48     0  02:00        2.08
  YS02001765           JUNCTION     0.43     2.04     8.49     0  02:00        2.04
  YS02001767           JUNCTION     0.43     2.00     8.49     0  02:00        2.00
  YS02001770           JUNCTION     0.44     1.95     8.44     0  01:55        1.95
  YS02001774           JUNCTION     0.50     2.05     8.47     0  01:55        2.00
  YS02001779           JUNCTION     0.32     1.68     8.37     0  01:55        1.68
  YS02001783           JUNCTION     0.33     1.26     7.40     0  01:56        1.23
  YS02001784           JUNCTION     0.34     1.17     7.24     0  02:15        1.17
  YS02001786           JUNCTION     0.28     0.89     6.92     0  02:00        0.88
  YS02001788           JUNCTION     0.21     0.62     6.60     0  01:59        0.62
  YS02001790           JUNCTION     0.24     0.73     6.37     0  02:01        0.72
  YS02001791           JUNCTION     0.15     0.44     5.91     0  01:59        0.43
  YS02001793           JUNCTION     0.08     0.30     5.13     0  02:11        0.29
  YS02001882           JUNCTION     0.40     1.70     8.42     0  02:15        1.68
  YS02001884           JUNCTION     0.49     1.78     8.40     0  02:15        1.78
  YS02001887           JUNCTION     0.57     1.87     8.41     0  02:00        1.87
  YS02001890           JUNCTION     0.60     1.81     8.32     0  01:56        1.81
  YS02001895           JUNCTION     0.37     1.61     8.36     0  02:15        1.56
  YS02001898           JUNCTION     0.38     1.63     8.36     0  02:15        1.56
  YS02001901           JUNCTION     0.49     1.85     8.46     0  02:15        1.85
  YS02001904           JUNCTION     0.47     1.75     8.38     0  02:15        1.75
  YS02001907           JUNCTION     0.78     1.96     8.25     0  01:56        1.96
  YS02001910           JUNCTION     0.59     1.98     8.48     0  01:57        1.93
  YS02001915           JUNCTION     0.40     1.93     8.64     0  01:57        1.83
  YS02001918           JUNCTION     0.22     1.81     8.88     0  01:57        1.44
  YS02001920           JUNCTION     0.30     2.14     9.15     0  01:57        1.50
  YS02001923           JUNCTION     0.17     2.03     9.29     0  01:57        1.27
  YS02001926           JUNCTION     0.20     1.90     9.35     0  01:57        1.10
  YS02001929           JUNCTION     0.12     1.78     9.47     0  01:57        0.88
  YS02006553           JUNCTION     0.79     1.98     8.26     0  02:15        1.98
  YS02006556           JUNCTION     0.76     2.00     8.31     0  02:00        2.00
  YS02006558           JUNCTION     0.80     2.11     8.37     0  02:00        2.11
  YS02006561           JUNCTION     0.20     0.94     7.60     0  01:56        0.89
  YS02163301           JUNCTION     0.65     1.98     8.50     0  01:54        1.98
  YS02163601           JUNCTION     0.74     2.08     8.48     0  01:54        2.08
  YS02164001           JUNCTION     0.67     2.06     8.52     0  02:15        2.02
  CC-1                 OUTFALL      0.00     0.00     0.00     0  00:00        0.00
  CC-2                 OUTFALL      0.00     0.00     0.00     0  00:00        0.00
  JK-1                 OUTFALL      0.00     0.00     0.00     0  00:00        0.00
  JK-2                 OUTFALL      0.00     0.00     0.00     0  00:00        0.00
  WSC                  OUTFALL      0.24     0.35     1.02     0  03:27        0.35
  CC-storage           STORAGE      0.94     1.78     7.28     0  02:28        1.78
  JK-storage           STORAGE      2.89     4.24     5.04     0  02:05        4.19
  XR-storage           STORAGE      7.81     9.26     7.26     0  08:00        9.26
  
  
  *******************
  Node Inflow Summary
  *******************
  
  -------------------------------------------------------------------------------------------------
                                  Maximum  Maximum                  Lateral       Total        Flow
                                  Lateral    Total  Time of Max      Inflow      Inflow     Balance
                                   Inflow   Inflow   Occurrence      Volume      Volume       Error
  Node                 Type           LPS      LPS  days hr:min    10^6 ltr    10^6 ltr     Percent
  -------------------------------------------------------------------------------------------------
  WS02001211           JUNCTION      7.35   200.35     0  02:38       0.212        5.44       0.611
  WS02001212           JUNCTION      0.00   202.52     0  03:30           0        5.41       0.290
  WS02001213           JUNCTION      0.00   203.69     0  03:51           0        5.39       0.335
  WS02003059           JUNCTION      0.00   208.44     0  03:50           0        5.38       0.599
  WS02003060           JUNCTION     16.53   752.55     0  03:25       0.476         9.6       0.157
  WS02003066           JUNCTION      0.00   538.66     0  03:25           0        3.78       0.044
  WS02003067           JUNCTION      0.00   538.63     0  03:24           0        3.78       0.122
  WS02003069           JUNCTION      0.32   752.82     0  03:25     0.00922        9.59       0.166
  WS02003072           JUNCTION      0.00   752.76     0  03:26           0        9.57       0.225
  WS02003073           JUNCTION      1.82   754.45     0  03:26      0.0524         9.6       0.235
  WS02004138           JUNCTION      0.00   380.00     0  00:00           0        5.25       0.053
  WS02004139           JUNCTION      0.32   191.16     0  00:29     0.00924        5.26       0.509
  WS02004401           JUNCTION      0.00   542.21     0  02:17           0        3.89       0.277
  WS02004402           JUNCTION      0.00   540.83     0  03:08           0        3.88       0.280
  WS02004403           JUNCTION      0.00   540.40     0  03:13           0        3.87       0.270
  WS02004404           JUNCTION      0.16   556.26     0  03:23     0.00467        3.86       0.151
  WS02004405           JUNCTION      0.04   604.15     0  03:23      0.0011        3.86       0.288
  WS02004406           JUNCTION      0.00   545.02     0  02:21           0        3.85       0.558
  WS02004407           JUNCTION      0.00   539.88     0  03:23           0        3.83       0.040
  WS02004409           JUNCTION      0.00   539.56     0  03:23           0        3.82       0.095
  WS02004410           JUNCTION      0.00   539.28     0  03:24           0        3.82       0.141
  WS02004411           JUNCTION      0.00   539.10     0  03:24           0        3.81       0.173
  WS02004412           JUNCTION      0.00   538.82     0  03:24           0        3.81       0.225
  WS02004413           JUNCTION      0.00   538.71     0  03:24           0         3.8       0.389
  WS02006109           JUNCTION      1.23   571.82     0  02:27      0.0354        3.94       0.229
  WS02006110           JUNCTION      0.00   574.76     0  02:27           0        3.93       0.180
  WS02006111           JUNCTION      0.00   560.97     0  02:28           0        3.92       0.025
  WS02006112           JUNCTION      0.00   543.21     0  02:57           0        3.92       0.475
  WS02006113           JUNCTION      0.00   576.44     0  02:27           0        3.92       0.045
  WS02006115           JUNCTION      0.00   553.13     0  02:52           0         3.9       0.184
  WS02006116           JUNCTION      0.00   540.84     0  02:18           0         3.9       0.163
  WS02006228           JUNCTION      0.00   567.70     0  02:27           0        3.91       0.106
  WS02006229           JUNCTION      0.00   565.41     0  02:27           0        3.91       0.123
  WS02006230           JUNCTION     10.28   591.10     0  02:21       0.296        3.92       0.121
  WS02006231           JUNCTION      0.00   582.33     0  02:38           0        3.62      -0.074
  WS02006232           JUNCTION      0.00   581.09     0  02:38           0        3.63       0.301
  WS02006234           JUNCTION      0.00   574.17     0  02:38           0        3.62      -0.204
  WS02006235           JUNCTION      0.00   566.67     0  02:41           0        3.68       0.186
  WS02006238           JUNCTION      0.00   425.16     0  02:40           0        2.65      -0.140
  WS02006239           JUNCTION      0.00   425.13     0  02:40           0        2.62      -0.078
  WS02006240           JUNCTION      0.00   422.12     0  02:40           0        2.59      -0.064
  WS02006242           JUNCTION      0.00   421.88     0  02:40           0        2.57      -0.136
  WS02006243           JUNCTION      0.00   421.37     0  02:40           0        2.56      -0.123
  WS02006245           JUNCTION      0.00   421.67     0  02:40           0        2.57       0.382
  WS02006247           JUNCTION      0.00   421.81     0  02:40           0        2.57       0.000
  WS02006248           JUNCTION      0.00   421.74     0  02:40           0        2.57      -0.061
  WS02006249           JUNCTION      0.00   458.97     0  00:00           0        2.87       0.397
  WS02006251           JUNCTION      0.08   406.27     0  01:52     0.00222        2.87       0.026
  WS02006252           JUNCTION      0.00   400.00     0  00:00           0        2.86      -0.231
  WS02006256           JUNCTION      0.00   300.00     0  00:00           0        1.57      -0.641
  WSF200               JUNCTION      0.00   538.67     0  03:25           0        3.78       0.025
  YS02001580           JUNCTION      0.00    79.48     0  01:51           0     0.00397       0.724
  YS02001583           JUNCTION      0.00   140.32     0  01:51           0      0.0151      -5.255
  YS02001586           JUNCTION    728.29   728.33     0  02:03        1.75        1.76       0.063
  YS02001590           JUNCTION      0.00   318.45     0  02:15           0        1.39      -0.019
  YS02001593           JUNCTION      0.00   318.71     0  02:15           0        1.39       0.007
  YS02001596           JUNCTION      0.00   318.14     0  02:13           0        1.39      -0.016
  YS02001600           JUNCTION      0.00   318.05     0  02:16           0        1.39       0.011
  YS02001601           JUNCTION   1213.68  1530.97     0  02:02         2.3        3.69       0.022
  YS02001602           JUNCTION      0.00   501.77     0  01:51           0        2.36       0.018
  YS02001605           JUNCTION      0.00   501.88     0  01:51           0        2.23       0.020
  YS02001607           JUNCTION      0.00   501.93     0  01:51           0        2.23       0.085
  YS02001610           JUNCTION      0.00   680.67     0  02:03           0        2.42       0.095
  YS02001613           JUNCTION      0.00   499.82     0  01:51           0        1.95       0.079
  YS02001616           JUNCTION      0.00   500.45     0  01:50           0        1.95       0.022
  YS02001619           JUNCTION   1257.24  1257.24     0  02:03        2.72        4.48       0.000
  YS02001622           JUNCTION      0.00   932.43     0  02:00           0        4.29      -0.004
  YS02001625           JUNCTION      0.00  1312.29     0  02:02           0        4.49       0.207
  YS02001629           JUNCTION      0.00   926.48     0  01:54           0        3.48       0.010
  YS02001633           JUNCTION    939.48  1337.90     0  01:54        1.75        5.01       0.068
  YS02001641           JUNCTION      0.00  1343.89     0  01:54           0        4.79       0.058
  YS02001644           JUNCTION    801.58  1693.03     0  01:54        1.44        6.23       0.050
  YS02001647           JUNCTION      0.00  1692.16     0  01:54           0        5.86       0.007
  YS02001649           JUNCTION      0.00  1846.14     0  01:53           0        7.26       0.003
  YS02001652           JUNCTION      0.00   831.26     0  02:01           0        1.39      -0.065
  YS02001655           JUNCTION      0.15   831.78     0  02:02     0.00443        1.39      -0.052
  YS02001658           JUNCTION      0.00   831.69     0  02:02           0        1.39      -0.050
  YS02001661           JUNCTION      0.00   879.17     0  02:00           0        1.39      -0.003
  YS02001664           JUNCTION    809.51   809.51     0  02:02        1.39        1.39      -0.008
  YS02001745           JUNCTION    479.51   479.51     0  02:01       0.786       0.786       0.157
  YS02001748           JUNCTION      0.04   555.96     0  01:57      0.0013       0.786      -0.287
  YS02001751           JUNCTION      0.01   487.27     0  02:01    0.000317       0.795       0.103
  YS02001754           JUNCTION      0.26   487.96     0  02:01     0.00749       0.812      -0.155
  YS02001757           JUNCTION      0.00  3076.77     0  01:59           0        10.8       0.010
  YS02001759           JUNCTION    700.80  1282.50     0  02:00        1.15        2.71      -0.010
  YS02001762           JUNCTION      0.00   683.20     0  01:58           0        1.56       0.011
  YS02001765           JUNCTION      0.00   683.67     0  01:58           0        1.56       0.011
  YS02001767           JUNCTION      0.54   684.10     0  01:58      0.0154        1.56       0.014
  YS02001770           JUNCTION    971.20   971.20     0  02:02        1.69        1.73      -0.050
  YS02001774           JUNCTION      0.00   435.17     0  02:02           0       0.211       0.559
  YS02001779           JUNCTION      0.01   435.51     0  02:02    0.000144       0.164      -0.349
  YS02001783           JUNCTION      0.00  1162.06     0  02:00           0         4.1       0.006
  YS02001784           JUNCTION      1.06  1163.48     0  02:00      0.0305        4.13       0.011
  YS02001786           JUNCTION      0.06  1164.05     0  02:00     0.00162        4.13       0.017
  YS02001788           JUNCTION      0.07  1165.59     0  02:00     0.00204        4.13       0.007
  YS02001790           JUNCTION      0.15  1166.33     0  02:02     0.00446        4.13       0.017
  YS02001791           JUNCTION      0.00  1296.08     0  02:00           0        4.13      -0.024
  YS02001793           JUNCTION      0.00  1248.54     0  02:02           0        4.13       0.003
  YS02001882           JUNCTION      0.00    41.30     0  01:54           0      0.0129       5.500
  YS02001884           JUNCTION      0.00    75.22     0  01:53           0       0.049       5.583
  YS02001887           JUNCTION    742.72   743.12     0  02:01        1.18        1.22       0.363
  YS02001890           JUNCTION      0.00   742.58     0  02:00           0        1.18       0.434
  YS02001895           JUNCTION      0.00   517.30     0  02:04           0        1.11       0.162
  YS02001898           JUNCTION      0.00   517.26     0  02:05           0        1.11       0.021
  YS02001901           JUNCTION      0.00   517.25     0  02:05           0        1.11       0.295
  YS02001904           JUNCTION      0.00   517.46     0  02:03           0        1.11       0.261
  YS02001907           JUNCTION      0.00  1766.30     0  02:01           0        3.47       0.525
  YS02001910           JUNCTION      0.00  1251.77     0  02:01           0        2.36       0.304
  YS02001915           JUNCTION    807.61  1251.42     0  02:01        1.46        2.39       0.065
  YS02001918           JUNCTION      0.00   459.03     0  02:01           0        0.96       0.005
  YS02001920           JUNCTION      2.87   458.88     0  02:01      0.0827       0.945       0.087
  YS02001923           JUNCTION      0.04   454.33     0  02:01     0.00109       0.848      -0.085
  YS02001926           JUNCTION      0.05   450.69     0  02:01      0.0015        0.83       0.038
  YS02001929           JUNCTION    420.99   420.99     0  02:03        0.82        0.82      -0.141
  YS02006553           JUNCTION      0.00   794.53     0  02:15           0         2.5       0.475
  YS02006556           JUNCTION      0.00   791.29     0  02:15           0        2.51       0.332
  YS02006558           JUNCTION    963.33  1161.96     0  02:00        1.64        4.13       0.082
  YS02006561           JUNCTION      0.00  1162.66     0  02:00           0         4.1      -0.003
  YS02163301           JUNCTION      0.00   934.97     0  01:54           0        3.48       0.042
  YS02163601           JUNCTION      0.11  1339.54     0  01:54     0.00317        4.79       0.103
  YS02164001           JUNCTION      0.00  1341.16     0  01:54           0        4.79       0.046
  CC-1                 OUTFALL       0.00   683.00     0  00:00           0        4.44       0.000
  CC-2                 OUTFALL       0.00   683.00     0  00:00           0        4.21       0.000
  JK-1                 OUTFALL       0.00  1000.00     0  00:00           0        2.51       0.000
  JK-2                 OUTFALL       0.00  1000.00     0  00:00           0      0.0484       0.000
  WSC                  OUTFALL       0.00   754.25     0  03:27           0        9.58       0.000
  CC-storage           STORAGE       0.00  3078.51     0  02:00           0          13      -0.186
  JK-storage           STORAGE       0.00  1213.07     0  02:04           0        4.28       0.020
  XR-storage           STORAGE     200.00   200.00     0  00:00        5.76        6.36       0.001
  
  
  **********************
  Node Surcharge Summary
  **********************
  
  Surcharging occurs when water rises above the top of the highest conduit.
  ---------------------------------------------------------------------
                                               Max. Height   Min. Depth
                                   Hours       Above Crown    Below Rim
  Node                 Type      Surcharged         Meters       Meters
  ---------------------------------------------------------------------
  WS02004404           JUNCTION        0.04          0.015        2.765
  WS02006109           JUNCTION        1.76          0.538        1.282
  WS02006110           JUNCTION        0.99          0.987        0.863
  WS02006112           JUNCTION        1.28          0.104        1.576
  WS02006228           JUNCTION        1.75          0.490        1.710
  WS02006229           JUNCTION        1.76          0.512        1.938
  WS02006230           JUNCTION        1.01          0.467        1.103
  WS02006231           JUNCTION        1.18          0.660        0.870
  WS02006232           JUNCTION        1.77          0.832        0.648
  WS02006234           JUNCTION        1.46          0.881        0.359
  WS02006235           JUNCTION        1.71          0.807        0.483
  WS02006238           JUNCTION        1.75          0.840        0.590
  WS02006239           JUNCTION        1.74          0.784        0.506
  WS02006240           JUNCTION        1.75          0.820        0.570
  WS02006242           JUNCTION        1.76          0.820        0.000
  WS02006243           JUNCTION        1.75          0.709        0.061
  WS02006245           JUNCTION        1.74          0.585        0.265
  WS02006247           JUNCTION        1.74          0.539        0.221
  WS02006248           JUNCTION        1.74          0.380        0.000
  WS02006249           JUNCTION        1.73          0.390        0.000
  WS02006251           JUNCTION        1.27          0.464        0.716
  WS02006252           JUNCTION        1.91          1.100        0.000
  WS02006256           JUNCTION        4.01          2.050        0.000
  YS02001580           JUNCTION        0.66          0.450        0.000
  YS02001583           JUNCTION        0.67          0.500        0.000
  YS02001586           JUNCTION        0.81          0.510        0.000
  YS02001590           JUNCTION        0.90          0.750        0.000
  YS02001593           JUNCTION        0.90          0.754        0.086
  YS02001596           JUNCTION        1.03          0.955        0.115
  YS02001600           JUNCTION        1.22          1.190        0.000
  YS02001601           JUNCTION        1.56          1.440        0.000
  YS02001602           JUNCTION        1.47          1.270        0.000
  YS02001605           JUNCTION        1.42          1.180        0.000
  YS02001607           JUNCTION        0.90          0.680        0.000
  YS02001610           JUNCTION        0.93          0.680        0.000
  YS02001613           JUNCTION        0.89          0.700        0.000
  YS02001616           JUNCTION        0.84          0.610        0.000
  YS02001619           JUNCTION        0.83          0.610        0.000
  YS02001622           JUNCTION        0.83          0.589        0.031
  YS02001625           JUNCTION        1.04          0.780        0.000
  YS02001629           JUNCTION        0.77          0.470        0.000
  YS02001633           JUNCTION        1.08          1.060        0.000
  YS02001641           JUNCTION        1.01          1.037        0.063
  YS02001644           JUNCTION        0.99          0.920        0.000
  YS02001647           JUNCTION        0.75          0.795        0.105
  YS02001649           JUNCTION        0.91          1.050        0.000
  YS02001652           JUNCTION        0.69          0.945        0.185
  YS02001655           JUNCTION        0.51          0.928        0.272
  YS02001658           JUNCTION        0.25          0.712        0.588
  YS02001661           JUNCTION        0.02          0.539        0.851
  YS02001748           JUNCTION        0.18          0.485        0.705
  YS02001751           JUNCTION        0.36          0.679        0.521
  YS02001754           JUNCTION        0.60          0.911        0.239
  YS02001757           JUNCTION        0.99          1.095        0.115
  YS02001759           JUNCTION        0.89          1.082        0.128
  YS02001762           JUNCTION        0.86          1.082        0.068
  YS02001765           JUNCTION        0.80          1.043        0.057
  YS02001767           JUNCTION        0.76          0.998        0.032
  YS02001770           JUNCTION        0.72          0.920        0.000
  YS02001774           JUNCTION        0.83          1.050        0.000
  YS02001779           JUNCTION        0.58          0.680        0.000
  YS02001783           JUNCTION        0.53          0.463        1.137
  YS02001784           JUNCTION        0.50          0.370        1.120
  YS02001786           JUNCTION        0.39          0.090        1.340
  YS02001882           JUNCTION        0.47          0.699        0.131
  YS02001884           JUNCTION        0.48          0.722        0.148
  YS02001887           JUNCTION        0.52          0.824        0.126
  YS02001890           JUNCTION        0.53          0.760        0.000
  YS02001895           JUNCTION        0.46          0.610        0.140
  YS02001898           JUNCTION        0.45          0.600        0.140
  YS02001901           JUNCTION        0.50          0.849        0.021
  YS02001904           JUNCTION        0.49          0.750        0.100
  YS02001907           JUNCTION        0.77          0.950        0.000
  YS02001910           JUNCTION        0.56          0.976        0.124
  YS02001915           JUNCTION        0.46          0.926        0.074
  YS02001918           JUNCTION        0.37          0.810        0.000
  YS02001920           JUNCTION        0.39          1.140        0.000
  YS02001923           JUNCTION        0.03          0.820        0.000
  YS02001926           JUNCTION        0.08          0.900        0.000
  YS02001929           JUNCTION        0.01          0.780        0.000
  YS02006553           JUNCTION        0.79          0.978        0.212
  YS02006556           JUNCTION        0.66          0.964        0.386
  YS02006558           JUNCTION        0.65          1.005        0.395
  YS02006561           JUNCTION        0.34          0.139        1.011
  YS02163301           JUNCTION        1.05          0.984        0.046
  YS02163601           JUNCTION        1.12          1.080        0.000
  YS02164001           JUNCTION        1.02          1.063        0.037
  
  
  *********************
  Node Flooding Summary
  *********************
  
  Flooding refers to all water that overflows a node, whether it ponds or not.
  --------------------------------------------------------------------------
                                                             Total   Maximum
                                 Maximum   Time of Max       Flood    Ponded
                        Hours       Rate    Occurrence      Volume     Depth
  Node                 Flooded       LPS   days hr:min    10^6 ltr    Meters
  --------------------------------------------------------------------------
  WS02006242              0.01      9.91      0  02:00       0.000     0.000
  WS02006248              0.01     19.63      0  02:15       0.000     0.000
  WS02006249              1.23     91.56      0  01:52       0.295     0.000
  WS02006252              0.01    245.63      0  00:00       0.000     0.000
  WS02006256              1.45    293.19      0  00:00       0.518     0.000
  YS02001580              0.01     13.54      0  01:51       0.000     0.000
  YS02001583              0.01     72.50      0  01:51       0.000     0.000
  YS02001586              0.51    410.92      0  02:03       0.365     0.000
  YS02001590              0.01      0.10      0  02:15       0.000     0.000
  YS02001600              0.01      2.32      0  01:51       0.000     0.000
  YS02001601              0.73   1133.15      0  02:02       1.330     0.000
  YS02001602              0.63     62.47      0  02:15       0.126     0.000
  YS02001605              0.01      0.18      0  01:54       0.000     0.000
  YS02001607              0.01      0.27      0  01:54       0.000     0.000
  YS02001610              0.54    680.43      0  02:03       0.656     0.000
  YS02001613              0.01      0.62      0  01:54       0.000     0.000
  YS02001616              0.01     11.91      0  02:15       0.000     0.000
  YS02001619              0.01      2.23      0  02:00       0.000     0.000
  YS02001625              0.52   1312.19      0  02:03       1.218     0.000
  YS02001629              0.11     89.26      0  01:58       0.020     0.000
  YS02001633              0.01      2.66      0  01:56       0.000     0.000
  YS02001644              0.21    875.91      0  02:02       0.356     0.000
  YS02001649              0.01      8.29      0  02:00       0.000     0.000
  YS02001770              0.01    113.51      0  01:55       0.000     0.000
  YS02001774              0.01     31.49      0  01:55       0.000     0.000
  YS02001779              0.17    435.43      0  02:02       0.143     0.000
  YS02001890              0.15    229.75      0  02:00       0.063     0.000
  YS02001907              0.31   1568.63      0  02:01       0.956     0.000
  YS02001918              0.01    123.89      0  01:57       0.001     0.000
  YS02001920              0.01     44.15      0  01:57       0.000     0.000
  YS02001923              0.01     74.94      0  01:57       0.000     0.000
  YS02001926              0.01     60.88      0  01:57       0.000     0.000
  YS02001929              0.01    224.53      0  01:57       0.001     0.000
  YS02163601              0.01      9.17      0  02:15       0.000     0.000
  
  
  **********************
  Storage Volume Summary
  **********************
  
  ------------------------------------------------------------------------------------------------
                         Average    Avg   Evap  Exfil     Maximum    Max    Time of Max    Maximum
                          Volume   Pcnt   Pcnt   Pcnt      Volume   Pcnt     Occurrence    Outflow
  Storage Unit           1000 m³   Full   Loss   Loss     1000 m³   Full    days hr:min        LPS
  ------------------------------------------------------------------------------------------------
  CC-storage               2.617   40.8    0.0    0.0       4.957   77.3       0  02:28    1783.53
  JK-storage               0.145   49.9    0.0    0.0       0.213   73.0       0  02:05    2300.00
  XR-storage               0.937   65.1    0.0    0.0       1.111   77.2       0  08:00     380.00
  
  
  ***********************
  Outfall Loading Summary
  ***********************
  
  -----------------------------------------------------------
                         Flow       Avg       Max       Total
                         Freq      Flow      Flow      Volume
  Outfall Node           Pcnt       LPS       LPS    10^6 ltr
  -----------------------------------------------------------
  CC-1                  38.75    683.00    683.00       4.437
  CC-2                  36.51    683.00    683.00       4.214
  JK-1                  17.78   1000.00   1000.00       2.511
  JK-2                   0.24   1000.00   1000.00       0.048
  WSC                   99.93    411.04    754.25       9.582
  -----------------------------------------------------------
  System                38.64   3777.04   3366.23      20.792
  
  
  ********************
  Link Flow Summary
  ********************
  
  -----------------------------------------------------------------------------
                                 Maximum  Time of Max   Maximum    Max/    Max/
                                  |Flow|   Occurrence   |Veloc|    Full    Full
  Link                 Type          LPS  days hr:min     m/sec    Flow   Depth
  -----------------------------------------------------------------------------
  1                    CONDUIT    754.25     0  03:27      3.08    0.26    0.35
  WS02001211WS02001212 CONDUIT    202.52     0  03:30      0.54    0.15    0.51
  WS02001212WS02001213 CONDUIT    203.69     0  03:51      1.04    0.31    0.36
  WS02001213WS02003059 CONDUIT    208.44     0  03:50      0.47    0.34    0.67
  WS02003059WS02003060 CONDUIT    215.19     0  03:51      0.67    0.14    0.59
  WS02003060WS02003069 CONDUIT    752.50     0  03:25      1.77    0.29    0.40
  WS02003066WSF200     CONDUIT    538.67     0  03:25      2.74    0.09    0.23
  WS02003067WS02003066 CONDUIT    538.66     0  03:25      1.21    0.17    0.42
  WS02003069WS02003072 CONDUIT    752.76     0  03:26      1.51    0.36    0.45
  WS02003072WS02003073 CONDUIT    752.63     0  03:26      1.60    1.63    0.43
  WS02004138WS02004139 CONDUIT    190.84     0  00:29      2.17    0.04    0.33
  WS02004139WS02001211 CONDUIT    193.00     0  02:38      0.54    0.24    0.47
  WS02004401WS02004402 CONDUIT    540.83     0  03:08      0.97    0.65    0.89
  WS02004402WS02004403 CONDUIT    540.40     0  03:13      0.97    0.78    0.91
  WS02004403WS02004404 CONDUIT    556.10     0  03:23      0.92    0.40    0.96
  WS02004404WS02004405 CONDUIT    604.12     0  03:23      1.08    5.92    0.98
  WS02004405WS02004406 CONDUIT    545.02     0  02:21      0.99    1.08    0.96
  WS02004406WS02004407 CONDUIT    539.88     0  03:23      1.04    0.24    0.63
  WS02004407WS02004409 CONDUIT    539.56     0  03:23      1.56    0.19    0.48
  WS02004409WS02004410 CONDUIT    539.28     0  03:24      1.03    0.70    0.68
  WS02004410WS02004411 CONDUIT    539.10     0  03:24      0.94    0.74    0.69
  WS02004411WS02004412 CONDUIT    538.82     0  03:24      0.92    0.77    0.70
  WS02004412WS02004413 CONDUIT    538.71     0  03:24      0.82    0.36    0.78
  WS02004413WS02003067 CONDUIT    538.63     0  03:24      1.11    0.23    0.59
  WS02006109WS02006110 CONDUIT    574.76     0  02:27      1.15    1.11    1.00
  WS02006110WS02006113 CONDUIT    576.44     0  02:27      1.39    0.52    0.78
  WS02006111WS02006112 CONDUIT    543.21     0  02:57      1.82    0.26    0.67
  WS02006112WS02006115 CONDUIT    553.13     0  02:52      0.84    0.33    0.88
  WS02006113WS02006111 CONDUIT    560.97     0  02:28      2.47    0.67    0.46
  WS02006115WS02006116 CONDUIT    540.84     0  02:18      1.01    0.69    0.78
  WS02006116WS02004401 CONDUIT    542.21     0  02:17      0.98    0.75    0.87
  WS02006228WS02006109 CONDUIT    570.59     0  02:27      1.14    2.49    1.00
  WS02006229WS02006228 CONDUIT    567.70     0  02:27      1.15    1.88    1.00
  WS02006230WS02006229 CONDUIT    565.41     0  02:27      1.47   12.58    1.00
  WS02006231WS02006230 CONDUIT    580.82     0  02:21      1.59    8.81    1.00
  WS02006232WS02006231 CONDUIT    582.33     0  02:38      1.52    1.22    1.00
  WS02006234WS02006232 CONDUIT    581.09     0  02:38      1.51    1.18    1.00
  WS02006235WS02006234 CONDUIT    574.17     0  02:38      1.49    6.06    1.00
  WS02006238WS02006235 CONDUIT    426.14     0  02:40      1.56    0.95    1.00
  WS02006239WS02006238 CONDUIT    425.16     0  02:40      1.11    1.36    1.00
  WS02006240WS02006239 CONDUIT    425.13     0  02:40      1.24    1.34    1.00
  WS02006242WS02006240 CONDUIT    422.12     0  02:40      1.12    1.68    1.00
  WS02006243WS02006242 CONDUIT    421.88     0  02:40      1.39    0.90    1.00
  WS02006245WS02006243 CONDUIT    421.37     0  02:40      1.45    1.25    1.00
  WS02006247WS02006245 CONDUIT    421.67     0  02:40      1.44    3.34    1.00
  WS02006248WS02006247 CONDUIT    421.81     0  02:40      1.45    0.92    1.00
  WS02006249WS02006248 CONDUIT    421.74     0  02:40      1.37    2.31    1.00
  WS02006251WS02006249 CONDUIT    458.97     0  00:00      1.99    1.32    1.00
  WS02006252WS02006251 CONDUIT    406.19     0  01:52     25.11    1.49    1.00
  WS02006256WS02006235 CONDUIT    289.21     0  01:41      4.23    3.06    1.00
  WSF200WS02003060     CONDUIT    538.68     0  03:25      1.76    0.12    0.32
  YS02001580YS02001583 CONDUIT     79.48     0  01:51      0.57    0.31    1.00
  YS02001583YS02001586 CONDUIT    140.32     0  01:51      0.58    0.21    1.00
  YS02001586YS02001590 CONDUIT    318.45     0  02:15      1.26    0.56    1.00
  YS02001590YS02001593 CONDUIT    318.71     0  02:15      1.13    2.00    1.00
  YS02001593YS02001596 CONDUIT    318.14     0  02:13      1.73    0.50    1.00
  YS02001596YS02001600 CONDUIT    318.05     0  02:16      1.24    0.62    1.00
  YS02001600YS02001601 CONDUIT    318.19     0  02:15      1.13    0.55    1.00
  YS02001601YS02001602 CONDUIT    501.77     0  01:51      1.77    1.81    1.00
  YS02001602YS02001605 CONDUIT    501.88     0  01:51      1.78   10.62    1.00
  YS02001605YS02001607 CONDUIT    501.93     0  01:51      1.78    2.75    1.00
  YS02001607YS02001610 CONDUIT    499.72     0  01:50      0.64    0.48    1.00
  YS02001610YS02001613 CONDUIT    499.82     0  01:51      0.64    0.58    1.00
  YS02001613YS02001616 CONDUIT    500.45     0  01:50      0.64    0.43    1.00
  YS02001616YS02001619 CONDUIT    495.73     0  01:51      0.66    0.86    1.00
  YS02001619YS02001622 CONDUIT    932.43     0  02:00      1.19    1.37    1.00
  YS02001622YS02001625 CONDUIT    933.30     0  02:00      1.19    0.50    1.00
  YS02001625YS02001629 CONDUIT    926.48     0  01:54      1.18    0.44    1.00
  YS02001629YS02163301 CONDUIT    934.97     0  01:54      1.19    1.15    1.00
  YS02001633YS02163601 CONDUIT   1339.43     0  01:54      1.71    1.41    1.00
  YS02001641YS02001644 CONDUIT   1346.53     0  01:54      1.71    4.35    1.00
  YS02001644YS02001647 CONDUIT   1692.16     0  01:54      2.21    0.99    1.00
  YS02001647YS02001649 CONDUIT   1685.92     0  01:54      2.30    0.89    1.00
  YS02001649YS02001757 CONDUIT   1829.03     0  01:53      2.39    1.11    1.00
  YS02001652YS02001649 CONDUIT    830.86     0  02:01      1.06    0.41    1.00
  YS02001655YS02001652 CONDUIT    831.26     0  02:01      1.30    0.40    1.00
  YS02001658YS02001655 CONDUIT    831.63     0  02:02      1.86    0.35    1.00
  YS02001661YS02001658 CONDUIT    831.69     0  02:02      2.22    0.33    1.00
  YS02001664YS02001661 CONDUIT    879.17     0  02:00      2.17    0.28    0.76
  YS02001745YS02001748 CONDUIT    555.91     0  01:57      2.03    0.21    0.90
  YS02001748YS02001751 CONDUIT    487.26     0  02:01      1.59    0.25    1.00
  YS02001751YS02001754 CONDUIT    487.70     0  02:01      1.40    0.24    1.00
  YS02001754YS02001757 CONDUIT    486.78     0  02:01      0.62    0.20    1.00
  YS02001757CaochengTiaoxuchi CONDUIT   3078.51     0  02:00      3.92    1.33    1.00
  YS02001759YS02001757 CONDUIT   1287.53     0  02:00      1.64    0.91    1.00
  YS02001762YS02001759 CONDUIT    682.67     0  01:58      0.87    0.79    1.00
  YS02001765YS02001762 CONDUIT    683.20     0  01:58      0.87    0.64    1.00
  YS02001767YS02001765 CONDUIT    683.67     0  01:58      0.87    0.86    1.00
  YS02001770YS02001767 CONDUIT    683.57     0  01:58      0.87    2.71    1.00
  YS02001774YS02001770 CONDUIT    435.17     0  02:02      0.55    0.28    1.00
  YS02001779YS02001774 CONDUIT    435.50     0  02:02      0.55    0.22    1.00
  YS02001783YS02001784 CONDUIT   1162.42     0  02:00      2.31    1.60    1.00
  YS02001784YS02001785 CONDUIT   1163.99     0  02:00      2.32    2.71    1.00
  YS02001786YS02001788 CONDUIT   1165.52     0  02:00      2.47    2.25    0.89
  YS02001788YS02001790 CONDUIT   1166.18     0  02:02      2.70    0.86    0.84
  YS02001790YS02001791 CONDUIT   1296.08     0  02:00      3.44    1.41    0.70
  YS02001791YS02001793 CONDUIT   1248.54     0  02:02      6.48    0.54    0.44
  YS02001793JiankangQianchi CONDUIT   1213.07     0  02:04      2.36    0.10    0.65
  YS02001882YS02001884 CONDUIT     41.30     0  01:54      0.16    0.05    1.00
  YS02001884YS02001887 CONDUIT     75.22     0  01:53      0.12    0.10    1.00
  YS02001887YS02001890 CONDUIT    742.58     0  02:00      0.95    1.27    1.00
  YS02001890YS02001895 CONDUIT    517.30     0  02:04      0.66    0.24    1.00
  YS02001895YS02001898 CONDUIT    517.26     0  02:05      0.66    0.90    1.00
  YS02001898YS02001901 CONDUIT    517.25     0  02:05      0.66    0.33    1.00
  YS02001901YS02001904 CONDUIT    517.46     0  02:03      0.66    0.80    1.00
  YS02001904YS02001907 CONDUIT    517.57     0  02:03      0.66    0.18    1.00
  YS02001907YS02006553 CONDUIT    794.53     0  02:15      0.88    0.93    1.00
  YS02001910YS02001907 CONDUIT   1251.76     0  02:01      1.59    0.71    1.00
  YS02001915YS02001910 CONDUIT   1251.77     0  02:01      1.59    0.62    1.00
  YS02001918YS02001915 CONDUIT    459.23     0  02:01      0.58    0.25    1.00
  YS02001920YS02001918 CONDUIT    459.03     0  02:01      0.64    0.44    1.00
  YS02001923YS02001920 CONDUIT    456.01     0  02:01      0.71    0.20    1.00
  YS02001926YS02001923 CONDUIT    454.30     0  02:01      0.97    0.65    1.00
  YS02001929YS02001926 CONDUIT    450.64     0  02:01      1.12    0.21    1.00
  YS02006553YS02006556 CONDUIT    791.29     0  02:15      1.01    0.68    1.00
  YS02006556YS02006558 CONDUIT    789.56     0  02:16      1.01    0.62    1.00
  YS02006558YS02006561 CONDUIT   1162.66     0  02:00      4.11    2.57    1.00
  YS02006561YS02001783 CONDUIT   1162.06     0  02:00      2.31    0.60    1.00
  YS02163301YS02001633 CONDUIT    937.68     0  01:54      1.19    0.88    1.00
  YS02163601YS02164001 CONDUIT   1341.16     0  01:54      1.71    1.19    1.00
  YS02164001YS02001641 CONDUIT   1343.89     0  01:54      1.71    1.84    1.00
  CC-R1                PUMP       683.00     0  00:00              1.00
  CC-R2                PUMP       683.00     0  00:00              1.00
  CC-S1                PUMP       200.00     0  00:00              1.00
  CC-S2                PUMP       200.00     0  00:00              1.00
  JK-R1                PUMP      1000.00     0  00:00              1.00
  JK-R2                PUMP      1000.00     0  00:00              1.00
  JK-S                 PUMP       300.00     0  00:00              1.00
  XR-1                 PUMP        95.00     0  00:00              1.00
  XR-2                 PUMP        95.00     0  00:00              1.00
  XR-3                 PUMP        95.00     0  00:00              1.00
  XR-4                 PUMP        95.00     0  00:00              1.00
  
  
  ***************************
  Flow Classification Summary
  ***************************
  
  -------------------------------------------------------------------------------------
                      Adjusted    ---------- Fraction of Time in Flow Class ---------- 
                       /Actual         Up    Down  Sub   Sup   Up    Down  Norm  Inlet 
  Conduit               Length    Dry  Dry   Dry   Crit  Crit  Crit  Crit  Ltd   Ctrl  
  -------------------------------------------------------------------------------------
  1                       1.00   0.00  0.00  0.00  0.00  1.00  0.00  0.00  0.15  0.00
  WS02001211WS02001212    1.00   0.00  0.02  0.00  0.98  0.00  0.00  0.00  0.00  0.00
  WS02001212WS02001213    1.00   0.02  0.00  0.00  0.24  0.00  0.74  0.00  0.00  0.00
  WS02001213WS02003059    1.00   0.00  0.01  0.00  0.99  0.00  0.00  0.00  0.00  0.00
  WS02003059WS02003060    1.00   0.00  0.00  0.00  1.00  0.00  0.00  0.00  0.03  0.00
  WS02003060WS02003069    1.00   0.00  0.00  0.00  0.98  0.02  0.00  0.00  0.67  0.00
  WS02003066WSF200        1.00   0.13  0.00  0.00  0.00  0.87  0.00  0.00  0.71  0.00
  WS02003067WS02003066    1.00   0.10  0.02  0.00  0.88  0.00  0.00  0.00  0.00  0.00
  WS02003069WS02003072    1.00   0.00  0.00  0.00  1.00  0.00  0.00  0.00  0.74  0.00
  WS02003072WS02003073    1.00   0.00  0.00  0.00  0.00  0.00  0.00  1.00  0.00  0.00
  WS02004138WS02004139    1.00   0.00  0.00  0.00  0.97  0.01  0.00  0.02  0.98  0.00
  WS02004139WS02001211    1.00   0.00  0.00  0.00  0.99  0.00  0.00  0.00  0.00  0.00
  WS02004401WS02004402    1.00   0.02  0.00  0.00  0.98  0.00  0.00  0.00  0.00  0.00
  WS02004402WS02004403    1.00   0.02  0.00  0.00  0.97  0.00  0.00  0.00  0.00  0.00
  WS02004403WS02004404    1.00   0.00  0.03  0.00  0.97  0.00  0.00  0.00  0.00  0.00
  WS02004404WS02004405    1.00   0.00  0.00  0.00  1.00  0.00  0.00  0.00  0.01  0.00
  WS02004405WS02004406    1.00   0.00  0.00  0.00  1.00  0.00  0.00  0.00  0.00  0.00
  WS02004406WS02004407    1.00   0.00  0.05  0.00  0.95  0.00  0.00  0.00  0.00  0.00
  WS02004407WS02004409    1.00   0.05  0.00  0.00  0.94  0.01  0.00  0.00  0.94  0.00
  WS02004409WS02004410    1.00   0.05  0.00  0.00  0.95  0.00  0.00  0.00  0.03  0.00
  WS02004410WS02004411    1.00   0.05  0.00  0.00  0.95  0.00  0.00  0.00  0.01  0.00
  WS02004411WS02004412    1.00   0.05  0.00  0.00  0.95  0.00  0.00  0.00  0.00  0.00
  WS02004412WS02004413    1.00   0.05  0.00  0.00  0.94  0.00  0.00  0.00  0.01  0.00
  WS02004413WS02003067    1.00   0.06  0.04  0.00  0.00  0.00  0.90  0.00  0.00  0.00
  WS02006109WS02006110    1.00   0.00  0.01  0.00  0.98  0.00  0.01  0.00  0.00  0.00
  WS02006110WS02006113    1.00   0.01  0.01  0.00  0.98  0.00  0.00  0.00  0.00  0.00
  WS02006111WS02006112    1.00   0.02  0.00  0.00  0.98  0.00  0.00  0.00  0.98  0.00
  WS02006112WS02006115    1.00   0.02  0.00  0.00  0.97  0.00  0.00  0.00  0.00  0.00
  WS02006113WS02006111    1.00   0.02  0.00  0.00  0.00  0.98  0.00  0.00  0.09  0.00
  WS02006115WS02006116    1.00   0.02  0.00  0.00  0.97  0.00  0.00  0.01  0.00  0.00
  WS02006116WS02004401    1.00   0.02  0.00  0.00  0.98  0.00  0.00  0.00  0.00  0.00
  WS02006228WS02006109    1.00   0.00  0.00  0.00  1.00  0.00  0.00  0.00  0.00  0.00
  WS02006229WS02006228    1.00   0.00  0.00  0.00  0.99  0.00  0.00  0.01  0.00  0.00
  WS02006230WS02006229    1.00   0.00  0.00  0.00  0.99  0.00  0.00  0.01  0.00  0.00
  WS02006231WS02006230    1.00   0.00  0.00  0.00  0.23  0.00  0.77  0.00  0.00  0.00
  WS02006232WS02006231    1.00   0.00  0.00  0.00  0.99  0.00  0.01  0.00  0.00  0.00
  WS02006234WS02006232    1.00   0.00  0.00  0.00  1.00  0.00  0.00  0.00  0.38  0.00
  WS02006235WS02006234    1.00   0.00  0.00  0.00  0.57  0.00  0.43  0.00  0.00  0.00
  WS02006238WS02006235    1.00   0.00  0.00  0.00  1.00  0.00  0.00  0.00  0.00  0.00
  WS02006239WS02006238    1.00   0.00  0.00  0.00  1.00  0.00  0.00  0.00  0.50  0.00
  WS02006240WS02006239    1.00   0.00  0.00  0.00  0.42  0.00  0.00  0.58  0.01  0.00
  WS02006242WS02006240    1.00   0.00  0.00  0.00  1.00  0.00  0.00  0.00  0.00  0.00
  WS02006243WS02006242    1.00   0.00  0.00  0.00  0.99  0.00  0.00  0.01  0.70  0.00
  WS02006245WS02006243    1.00   0.00  0.00  0.00  0.48  0.00  0.00  0.52  0.01  0.00
  WS02006247WS02006245    1.00   0.00  0.00  0.00  0.99  0.00  0.00  0.01  0.00  0.00
  WS02006248WS02006247    1.00   0.00  0.00  0.00  0.99  0.00  0.00  0.01  0.22  0.00
  WS02006249WS02006248    1.00   0.00  0.00  0.00  0.34  0.00  0.66  0.00  0.00  0.00
  WS02006251WS02006249    1.00   0.00  0.00  0.00  0.99  0.01  0.00  0.00  0.71  0.00
  WS02006252WS02006251    1.00   0.00  0.72  0.00  0.16  0.00  0.12  0.00  0.00  0.00
  WS02006256WS02006235    1.00   0.00  0.00  0.00  1.00  0.00  0.00  0.00  0.00  0.00
  WSF200WS02003060        1.00   0.00  0.13  0.00  0.65  0.22  0.00  0.00  0.64  0.00
  YS02001580YS02001583    1.00   0.23  0.57  0.00  0.20  0.00  0.00  0.00  0.66  0.00
  YS02001583YS02001586    1.00   0.48  0.27  0.00  0.26  0.00  0.00  0.00  0.66  0.00
  YS02001586YS02001590    1.00   0.13  0.00  0.00  0.41  0.04  0.00  0.43  0.33  0.00
  YS02001590YS02001593    1.00   0.13  0.01  0.00  0.13  0.00  0.74  0.00  0.00  0.00
  YS02001593YS02001596    1.00   0.13  0.00  0.00  0.15  0.01  0.00  0.70  0.02  0.00
  YS02001596YS02001600    1.00   0.13  0.00  0.00  0.21  0.01  0.00  0.64  0.04  0.00
  YS02001600YS02001601    1.00   0.13  0.01  0.00  0.86  0.00  0.00  0.00  0.60  0.00
  YS02001601YS02001602    1.00   0.13  0.01  0.00  0.87  0.00  0.00  0.00  0.00  0.00
  YS02001602YS02001605    1.00   0.13  0.00  0.00  0.87  0.00  0.00  0.00  0.00  0.00
  YS02001605YS02001607    1.00   0.13  0.00  0.00  0.87  0.00  0.00  0.00  0.00  0.00
  YS02001607YS02001610    1.00   0.13  0.01  0.00  0.86  0.00  0.00  0.00  0.01  0.00
  YS02001610YS02001613    1.00   0.13  0.00  0.00  0.87  0.00  0.00  0.00  0.00  0.00
  YS02001613YS02001616    1.00   0.13  0.00  0.00  0.87  0.00  0.00  0.00  0.00  0.00
  YS02001616YS02001619    1.00   0.13  0.00  0.00  0.87  0.00  0.00  0.00  0.00  0.00
  YS02001619YS02001622    1.00   0.13  0.00  0.00  0.87  0.00  0.00  0.00  0.34  0.00
  YS02001622YS02001625    1.00   0.13  0.00  0.00  0.87  0.00  0.00  0.00  0.03  0.00
  YS02001625YS02001629    1.00   0.13  0.04  0.00  0.18  0.00  0.65  0.00  0.00  0.00
  YS02001629YS02163301    1.00   0.14  0.01  0.00  0.85  0.00  0.00  0.00  0.00  0.00
  YS02001633YS02163601    1.00   0.00  0.01  0.00  0.99  0.00  0.00  0.00  0.14  0.00
  YS02001641YS02001644    1.00   0.00  0.01  0.00  0.99  0.00  0.00  0.00  0.00  0.00
  YS02001644YS02001647    1.00   0.00  0.16  0.00  0.84  0.00  0.00  0.00  0.00  0.00
  YS02001647YS02001649    1.00   0.00  0.16  0.00  0.59  0.25  0.00  0.00  0.58  0.00
  YS02001649YS02001757    1.00   0.00  0.00  0.00  0.72  0.27  0.00  0.00  0.50  0.00
  YS02001652YS02001649    1.00   0.00  0.00  0.00  0.97  0.03  0.00  0.00  0.74  0.00
  YS02001655YS02001652    1.00   0.00  0.00  0.00  0.20  0.01  0.00  0.79  0.04  0.00
  YS02001658YS02001655    1.00   0.00  0.14  0.00  0.70  0.17  0.00  0.00  0.67  0.00
  YS02001661YS02001658    1.00   0.14  0.00  0.00  0.56  0.31  0.00  0.00  0.69  0.00
  YS02001664YS02001661    1.00   0.13  0.00  0.00  0.76  0.11  0.00  0.00  0.85  0.00
  YS02001745YS02001748    1.00   0.00  0.00  0.00  0.12  0.01  0.00  0.88  0.05  0.00
  YS02001748YS02001751    1.00   0.00  0.00  0.00  0.86  0.14  0.00  0.00  0.76  0.00
  YS02001751YS02001754    1.00   0.00  0.00  0.00  0.18  0.01  0.00  0.82  0.03  0.00
  YS02001754YS02001757    1.00   0.00  0.00  0.00  1.00  0.00  0.00  0.00  0.81  0.00
  YS02001757CaochengTiaoxuchi    1.00   0.00  0.00  0.00  1.00  0.00  0.00  0.00  0.80  0.00
  YS02001759YS02001757    1.00   0.00  0.00  0.00  0.99  0.01  0.00  0.00  0.61  0.00
  YS02001762YS02001759    1.00   0.00  0.00  0.00  1.00  0.00  0.00  0.00  0.03  0.00
  YS02001765YS02001762    1.00   0.00  0.00  0.00  1.00  0.00  0.00  0.00  0.71  0.00
  YS02001767YS02001765    1.00   0.00  0.00  0.00  1.00  0.00  0.00  0.00  0.00  0.00
  YS02001770YS02001767    1.00   0.00  0.00  0.00  1.00  0.00  0.00  0.00  0.00  0.00
  YS02001774YS02001770    1.00   0.00  0.13  0.00  0.61  0.00  0.26  0.00  0.02  0.00
  YS02001779YS02001774    1.00   0.00  0.00  0.00  1.00  0.00  0.00  0.00  0.76  0.00
  YS02001783YS02001784    1.00   0.00  0.17  0.00  0.83  0.00  0.00  0.00  0.57  0.00
  YS02001784YS02001785    1.00   0.00  0.00  0.00  1.00  0.00  0.00  0.00  0.16  0.00
  YS02001786YS02001788    1.00   0.00  0.00  0.00  0.79  0.21  0.00  0.00  0.00  0.00
  YS02001788YS02001790    1.00   0.00  0.00  0.00  0.20  0.80  0.00  0.00  0.79  0.00
  YS02001790YS02001791    1.00   0.00  0.00  0.00  0.01  0.99  0.00  0.00  0.17  0.00
  YS02001791YS02001793    1.00   0.00  0.00  0.00  0.00  1.00  0.00  0.00  0.01  0.00
  YS02001793JiankangQianchi    1.00   0.00  0.00  0.00  0.99  0.00  0.00  0.00  0.94  0.00
  YS02001882YS02001884    1.00   0.15  0.01  0.00  0.85  0.00  0.00  0.00  0.00  0.00
  YS02001884YS02001887    1.00   0.06  0.05  0.00  0.89  0.00  0.00  0.00  0.00  0.00
  YS02001887YS02001890    1.00   0.00  0.00  0.00  0.97  0.00  0.03  0.00  0.00  0.00
  YS02001890YS02001895    1.00   0.00  0.15  0.00  0.85  0.00  0.00  0.00  0.00  0.00
  YS02001895YS02001898    1.00   0.15  0.00  0.00  0.83  0.00  0.02  0.00  0.00  0.00
  YS02001898YS02001901    1.00   0.16  0.00  0.00  0.84  0.00  0.00  0.00  0.01  0.00
  YS02001901YS02001904    1.00   0.16  0.00  0.00  0.84  0.00  0.00  0.00  0.00  0.00
  YS02001904YS02001907    1.00   0.00  0.15  0.00  0.84  0.00  0.00  0.00  0.00  0.00
  YS02001907YS02006553    1.00   0.00  0.02  0.00  0.98  0.00  0.00  0.00  0.00  0.00
  YS02001910YS02001907    1.00   0.00  0.00  0.00  0.97  0.00  0.00  0.03  0.12  0.00
  YS02001915YS02001910    1.00   0.00  0.00  0.00  0.97  0.03  0.00  0.00  0.13  0.00
  YS02001918YS02001915    1.00   0.00  0.01  0.00  0.98  0.02  0.00  0.00  0.75  0.00
  YS02001920YS02001918    1.00   0.00  0.01  0.00  0.99  0.00  0.00  0.00  0.00  0.00
  YS02001923YS02001920    1.00   0.00  0.00  0.00  1.00  0.00  0.00  0.00  0.92  0.00
  YS02001926YS02001923    1.00   0.00  0.07  0.00  0.06  0.00  0.87  0.00  0.00  0.00
  YS02001929YS02001926    1.00   0.00  0.13  0.00  0.87  0.00  0.00  0.00  0.82  0.00
  YS02006553YS02006556    1.00   0.01  0.00  0.00  0.99  0.00  0.00  0.00  0.03  0.00
  YS02006556YS02006558    1.00   0.00  0.00  0.00  1.00  0.00  0.00  0.00  0.00  0.00
  YS02006558YS02006561    1.00   0.17  0.00  0.00  0.05  0.78  0.00  0.00  0.17  0.00
  YS02006561YS02001783    1.00   0.17  0.00  0.00  0.09  0.74  0.00  0.00  0.69  0.00
  YS02163301YS02001633    1.00   0.00  0.14  0.00  0.86  0.00  0.00  0.00  0.00  0.00
  YS02163601YS02164001    1.00   0.00  0.08  0.00  0.92  0.00  0.00  0.00  0.00  0.00
  YS02164001YS02001641    1.00   0.01  0.07  0.00  0.92  0.00  0.00  0.00  0.05  0.00
  
  
  *************************
  Conduit Surcharge Summary
  *************************
  
  ----------------------------------------------------------------------------
                                                           Hours        Hours 
                         --------- Hours Full --------   Above Full   Capacity
  Conduit                Both Ends  Upstream  Dnstream   Normal Flow   Limited
  ----------------------------------------------------------------------------
  WS02003072WS02003073        0.01      0.01      0.01      1.88         0.01
  WS02004403WS02004404        0.01      0.01      0.03      0.01         0.01
  WS02004404WS02004405        0.01      0.03      0.01      2.14         0.01
  WS02004405WS02004406        0.01      0.01      0.01      1.06         0.01
  WS02006109WS02006110        0.99      0.99      1.78      1.14         0.01
  WS02006110WS02006113        0.01      0.01      1.77      0.01         0.01
  WS02006111WS02006112        0.01      0.01      1.84      0.01         0.01
  WS02006112WS02006115        0.01      0.01      1.28      0.01         0.01
  WS02006228WS02006109        1.76      1.77      1.76      1.90         1.75
  WS02006229WS02006228        1.75      1.76      1.75      1.84         1.74
  WS02006230WS02006229        1.79      1.82      1.79      2.63         1.79
  WS02006231WS02006230        1.01      1.01      1.24      2.33         0.01
  WS02006232WS02006231        1.18      1.18      1.77      1.25         0.01
  WS02006234WS02006232        1.70      1.70      1.77      1.23         1.22
  WS02006235WS02006234        1.45      1.46      1.70      2.25         0.03
  WS02006238WS02006235        1.72      1.72      1.77      0.01         0.01
  WS02006239WS02006238        1.75      1.77      1.75      1.78         1.56
  WS02006240WS02006239        1.73      1.75      1.74      1.79         1.46
  WS02006242WS02006240        1.75      1.75      1.78      1.85         0.01
  WS02006243WS02006242        1.75      1.75      1.76      0.01         0.06
  WS02006245WS02006243        1.74      1.74      1.75      0.73         0.76
  WS02006247WS02006245        1.74      1.74      1.74      2.02         1.72
  WS02006248WS02006247        1.74      1.74      1.74      0.01         0.06
  WS02006249WS02006248        1.73      1.74      1.74      2.01         0.01
  WS02006251WS02006249        1.73      1.73      1.73      1.84         1.66
  WS02006252WS02006251        1.91      1.91      1.91      1.91         0.01
  WS02006256WS02006235        2.24      2.29      3.98      1.45         0.01
  YS02001580YS02001583        0.66      0.66      0.72      0.01         0.01
  YS02001583YS02001586        0.67      0.67      0.81      0.01         0.01
  YS02001586YS02001590        0.82      0.82      0.90      0.01         0.01
  YS02001590YS02001593        0.90      0.90      0.92      0.94         0.01
  YS02001593YS02001596        0.91      0.91      1.03      0.01         0.01
  YS02001596YS02001600        1.09      1.09      1.22      0.01         0.01
  YS02001600YS02001601        1.29      1.29      1.56      0.01         0.01
  YS02001601YS02001602        1.47      1.47      1.59      1.21         0.01
  YS02001602YS02001605        1.42      1.42      1.47      2.27         0.01
  YS02001605YS02001607        1.38      1.42      1.38      1.53         1.38
  YS02001607YS02001610        0.90      0.90      0.93      0.01         0.01
  YS02001610YS02001613        0.89      0.89      0.93      0.01         0.01
  YS02001613YS02001616        0.84      0.84      0.89      0.01         0.01
  YS02001616YS02001619        0.83      0.83      0.84      0.01         0.01
  YS02001619YS02001622        0.83      0.83      0.83      0.86         0.76
  YS02001622YS02001625        0.83      0.83      1.04      0.01         0.01
  YS02001625YS02001629        0.77      0.77      1.04      0.01         0.01
  YS02001629YS02163301        1.04      1.04      1.05      0.07         0.14
  YS02001633YS02163601        1.08      1.08      1.12      0.30         0.29
  YS02001641YS02001644        0.99      1.01      0.99      1.62         0.97
  YS02001644YS02001647        0.75      0.75      0.99      0.01         0.01
  YS02001647YS02001649        0.75      0.75      0.91      0.01         0.01
  YS02001649YS02001757        0.91      0.91      0.99      0.06         0.04
  YS02001652YS02001649        0.72      0.72      0.91      0.01         0.01
  YS02001655YS02001652        0.50      0.50      0.69      0.01         0.01
  YS02001658YS02001655        0.25      0.25      0.51      0.01         0.01
  YS02001661YS02001658        0.02      0.02      0.25      0.01         0.01
  YS02001664YS02001661        0.01      0.01      0.07      0.01         0.01
  YS02001745YS02001748        0.01      0.01      0.18      0.01         0.01
  YS02001748YS02001751        0.22      0.22      0.37      0.01         0.01
  YS02001751YS02001754        0.36      0.36      0.60      0.01         0.01
  YS02001754YS02001757        0.65      0.65      0.99      0.01         0.01
  YS02001757CaochengTiaoxuchi        0.99      0.99      1.54      0.33         0.32
  YS02001759YS02001757        0.89      0.89      0.99      0.01         0.01
  YS02001762YS02001759        0.86      0.86      0.89      0.01         0.02
  YS02001765YS02001762        0.80      0.80      0.86      0.01         0.01
  YS02001767YS02001765        0.76      0.76      0.80      0.01         0.02
  YS02001770YS02001767        0.76      0.76      0.76      0.52         0.48
  YS02001774YS02001770        0.72      0.72      0.83      0.01         0.01
  YS02001779YS02001774        0.58      0.58      0.83      0.01         0.01
  YS02001783YS02001784        0.50      0.53      0.50      0.70         0.50
  YS02001784YS02001785        0.39      0.50      0.39      0.98         0.39
  YS02001786YS02001788        0.01      0.39      0.01      0.82         0.01
  YS02001790YS02001791        0.01      0.01      0.01      0.49         0.01
  YS02001793JiankangQianchi        0.01      0.01      7.69      0.01         0.01
  YS02001882YS02001884        0.47      0.47      0.48      0.01         0.01
  YS02001884YS02001887        0.50      0.50      0.52      0.01         0.01
  YS02001887YS02001890        0.53      0.53      0.54      0.09         0.01
  YS02001890YS02001895        0.46      0.46      0.56      0.01         0.01
  YS02001895YS02001898        0.45      0.45      0.46      0.01         0.01
  YS02001898YS02001901        0.46      0.46      0.50      0.01         0.01
  YS02001901YS02001904        0.49      0.49      0.50      0.01         0.01
  YS02001904YS02001907        0.49      0.49      0.80      0.01         0.01
  YS02001907YS02006553        0.99      0.99      1.07      0.01         0.01
  YS02001910YS02001907        0.56      0.56      0.77      0.01         0.01
  YS02001915YS02001910        0.46      0.46      0.56      0.01         0.01
  YS02001918YS02001915        0.37      0.37      0.46      0.01         0.01
  YS02001920YS02001918        0.37      0.37      0.39      0.01         0.01
  YS02001923YS02001920        0.32      0.32      0.39      0.01         0.01
  YS02001926YS02001923        0.03      0.03      0.08      0.01         0.01
  YS02001929YS02001926        0.01      0.01      0.08      0.01         0.01
  YS02006553YS02006556        0.66      0.66      0.79      0.01         0.01
  YS02006556YS02006558        0.74      0.74      0.81      0.01         0.01
  YS02006558YS02006561        0.41      0.65      0.41      0.92         0.41
  YS02006561YS02001783        0.34      0.34      0.53      0.01         0.01
  YS02163301YS02001633        1.05      1.05      1.09      0.01         0.01
  YS02163601YS02164001        1.02      1.02      1.12      0.08         0.01
  YS02164001YS02001641        1.01      1.02      1.01      0.75         0.65
  
  
  ***************
  Pumping Summary
  ***************
  
  ---------------------------------------------------------------------------------------------------------
                                                  Min       Avg       Max     Total     Power    % Time Off
                        Percent   Number of      Flow      Flow      Flow    Volume     Usage    Pump Curve
  Pump                 Utilized   Start-Ups       LPS       LPS       LPS  10^6 ltr     Kw-hr    Low   High
  ---------------------------------------------------------------------------------------------------------
  CC-R1                   22.55          11      0.00    683.00    683.00     4.436     83.10    0.0   20.3
  CC-R2                   21.42          11      0.00    683.00    683.00     4.212     78.97    0.0   21.4
  CC-S1                   25.83          11      0.00    200.00    200.00     1.488      8.23    0.0    0.0
  CC-S2                   23.87          11      0.00    200.00    200.00     1.375      7.56    0.0    0.0
  JK-R1                    8.72          14      0.00   1000.00   1000.00     2.511     30.29    0.0    0.0
  JK-R2                    0.16           1      0.00   1000.00   1000.00     0.047      0.36    0.0    0.0
  JK-S                    18.14          17      0.00    300.00    300.00     1.568     21.24    0.0    0.0
  XR-1                    97.91           2      0.00     95.00     95.00     2.679      9.60    0.0    0.0
  XR-2                    93.94           2      0.00     95.00     95.00     2.570      8.76    0.0    0.0
  XR-3                     0.00           1      0.00     95.00     95.00     0.000      0.00    0.0    0.0
  XR-4                     0.00           1      0.00     95.00     95.00     0.000      0.00    0.0    0.0
  

  Analysis begun on:  Wed Nov  5 16:31:43 2025
  Analysis ended on:  Wed Nov  5 16:31:45 2025
  Total elapsed time: 00:00:02