
  EPA STORM WATER MANAGEMENT MODEL - VERSION 5.2 (Build 5.2.4)
  PYSWMM TOOLKIT API - VERSION v1.0 (2023-11-27)
  ------------------------------------------------------------

  WARNING 04: minimum elevation drop used for Conduit WS02004404WS02004405
  WARNING 03: negative offset ignored for Link YS02001904YS02001907
  
  ****************
  Analysis Options
  ****************
  Flow Units ............... LPS
  Process Models:
    Rainfall/Runoff ........ YES
    RDII ................... NO
    Snowmelt ............... NO
    Groundwater ............ NO
    Flow Routing ........... YES
    Ponding Allowed ........ NO
    Water Quality .......... NO
  Infiltration Method ...... HORTON
  Flow Routing Method ...... DYNWAVE
  Surcharge Method ......... EXTRAN
  Starting Date ............ 08/28/2015 08:00:00
  Ending Date .............. 08/28/2015 16:00:00
  Antecedent Dry Days ...... 8.0
  Report Time Step ......... 00:01:00
  Wet Time Step ............ 00:01:00
  Dry Time Step ............ 00:01:00
  Routing Time Step ........ 30.00 sec
  Variable Time Step ....... YES
  Maximum Trials ........... 8
  Number of Threads ........ 4
  Head Tolerance ........... 0.001500 m
  
  
  **************************        Volume         Depth
  Runoff Quantity Continuity     hectare-m            mm
  **************************     ---------       -------
  Initial LID Storage ......         0.049         1.488
  Total Precipitation ......         1.705        51.413
  Evaporation Loss .........         0.000         0.000
  Infiltration Loss ........         0.074         2.238
  Surface Runoff ...........         1.246        37.573
  Final Storage ............         0.435        13.117
  Continuity Error (%) .....        -0.052
  
  
  **************************        Volume        Volume
  Flow Routing Continuity        hectare-m      10^6 ltr
  **************************     ---------     ---------
  Dry Weather Inflow .......         0.602         6.020
  Wet Weather Inflow .......         1.246        12.462
  Groundwater Inflow .......         0.000         0.000
  RDII Inflow ..............         0.000         0.000
  External Inflow ..........         0.105         1.045
  External Outflow .........         1.715        17.146
  Flooding Loss ............         0.211         2.105
  Evaporation Loss .........         0.000         0.000
  Exfiltration Loss ........         0.000         0.000
  Initial Stored Volume ....         0.303         3.031
  Final Stored Volume ......         0.336         3.358
  Continuity Error (%) .....        -0.228
  
  
  *************************
  Highest Continuity Errors
  *************************
  Node YS02001583 (-11.29%)
  Node YS02001884 (5.09%)
  Node YS02001774 (1.83%)
  
  
  ***************************
  Time-Step Critical Elements
  ***************************
  Link WS02004404WS02004405 (40.50%)
  Link WS02006238WS02006235 (24.23%)
  Link YS02001791YS02001793 (8.94%)
  Link WS02006252WS02006251 (6.52%)
  Link WS02003066WSF200 (3.51%)
  
  
  ********************************
  Highest Flow Instability Indexes
  ********************************
  Link WS02006113WS02006111 (25)
  Link WS02006111WS02006112 (16)
  Link WS02006252WS02006251 (16)
  Link WS02006238WS02006235 (14)
  Link WS02006256WS02006235 (13)
  
  
  *********************************
  Most Frequent Nonconverging Nodes
  *********************************
  Node CC-1 (18.05%)
  Node CC-2 (18.05%)
  Node JK-1 (18.05%)
  Node JK-2 (18.05%)
  Node WSC (18.05%)
  
  
  *************************
  Routing Time Step Summary
  *************************
  Minimum Time Step           :     0.02 sec
  Average Time Step           :     3.61 sec
  Maximum Time Step           :     7.04 sec
  % of Time in Steady State   :     0.00
  Average Iterations per Step :     3.42
  % of Steps Not Converging   :    18.05
  Time Step Frequencies       :
     30.000 - 13.228 sec      :     0.00 %
     13.228 -  5.833 sec      :    26.97 %
      5.833 -  2.572 sec      :    32.17 %
      2.572 -  1.134 sec      :    26.66 %
      1.134 -  0.500 sec      :    14.20 %
  
  
  ***************************
  Subcatchment Runoff Summary
  ***************************
  
  ------------------------------------------------------------------------------------------------------------------------------
                            Total      Total      Total      Total     Imperv       Perv      Total       Total     Peak  Runoff
                           Precip      Runon       Evap      Infil     Runoff     Runoff     Runoff      Runoff   Runoff   Coeff
  Subcatchment                 mm         mm         mm         mm         mm         mm         mm    10^6 ltr      LPS
  ------------------------------------------------------------------------------------------------------------------------------
  sub60                     51.41       0.00       0.00       1.35      33.99       3.41      37.40        0.49   322.43   0.727
  sub61                     51.41       0.00       0.00       2.07      33.96       5.07      39.04        0.72   466.11   0.759
  sub62                     51.41       0.00       0.00       0.92      36.20       2.32      38.52        1.06   637.38   0.749
  sub63                     51.41       0.00       0.00       3.77      29.09       8.44      37.53        0.85   510.23   0.730
  sub64                     51.41       0.00       0.00       1.81      33.12       4.20      37.31        0.90   510.86   0.726
  sub65                     51.41       0.00       0.00       1.66      35.74       3.83      39.57        1.09   592.95   0.770
  sub66                     51.41       0.00       0.00       4.35      28.12       7.47      35.59        1.66   743.38   0.692
  sub67                     51.41       0.00       0.00       0.92      37.12       2.40      39.52        0.74   505.15   0.769
  sub68                     51.41       0.00       0.00       1.59      32.78       3.89      36.67        1.01   632.87   0.713
  sub69                     51.41       0.00       0.00       1.43      34.55       4.68      39.23        1.45   773.46   0.763
  sub70                     51.41       0.00       0.00       4.74      27.67       9.58      37.25        1.08   431.39   0.725
  sub71                     51.41       0.00       0.00       0.85      32.88       2.09      34.98        0.91   521.66   0.680
  sub72                     51.41       0.00       0.00       0.81      35.51       1.95      37.46        0.52   265.06   0.729
  

  ***********************
  LID Performance Summary
  ***********************

  --------------------------------------------------------------------------------------------------------------------
                                         Total      Evap     Infil   Surface    Drain    Initial     Final  Continuity
                                        Inflow      Loss      Loss   Outflow   Outflow   Storage   Storage       Error
  Subcatchment      LID Control             mm        mm        mm        mm        mm        mm        mm           %
  --------------------------------------------------------------------------------------------------------------------
  sub60             GreenRoof            51.41      0.00      0.00      0.00      0.00      7.05     58.55       -0.15
  sub61             GreenRoof            51.41      0.00      0.00      0.00      0.00      7.05     58.55       -0.15
  sub62             GreenRoof            51.41      0.00      0.00      0.00      0.00      7.05     58.55       -0.15
  sub63             GreenRoof            51.41      0.00      0.00      0.00      0.00      7.05     58.55       -0.15
  sub64             GreenRoof            51.41      0.00      0.00      0.00      0.00      7.05     58.55       -0.15
  sub65             GreenRoof            51.41      0.00      0.00      0.00      0.00      7.05     58.55       -0.15
  sub66             GreenRoof            51.41      0.00      0.00      0.00      0.00      7.05     58.55       -0.15
  sub67             GreenRoof            51.41      0.00      0.00      0.00      0.00      7.05     58.55       -0.15
  sub68             GreenRoof            51.41      0.00      0.00      0.00      0.00      7.05     58.55       -0.15
  sub69             GreenRoof            51.41      0.00      0.00      0.00      0.00      7.05     58.55       -0.15
  sub70             GreenRoof            51.41      0.00      0.00      0.00      0.00      7.05     58.55       -0.15
  sub71             GreenRoof            51.41      0.00      0.00      0.00      0.00      7.05     58.55       -0.15
  sub72             GreenRoof            51.41      0.00      0.00      0.00      0.00      7.05     58.55       -0.15
  
  ******************
  Node Depth Summary
  ******************
  
  ---------------------------------------------------------------------------------
                                 Average  Maximum  Maximum  Time of Max    Reported
                                   Depth    Depth      HGL   Occurrence   Max Depth
  Node                 Type       Meters   Meters   Meters  days hr:min      Meters
  ---------------------------------------------------------------------------------
  WS02001211           JUNCTION     0.60     0.64     5.48     0  03:09        0.64
  WS02001212           JUNCTION     0.33     0.38     5.45     0  03:09        0.38
  WS02001213           JUNCTION     0.53     0.65     5.41     0  03:08        0.65
  WS02003059           JUNCTION     0.59     0.72     5.40     0  03:08        0.72
  WS02003060           JUNCTION     0.30     0.45     5.38     0  03:08        0.45
  WS02003066           JUNCTION     0.15     0.30     5.85     0  03:07        0.30
  WS02003067           JUNCTION     0.42     0.70     6.02     0  03:07        0.70
  WS02003069           JUNCTION     0.33     0.51     5.10     0  03:08        0.51
  WS02003072           JUNCTION     0.39     0.58     4.95     0  03:08        0.58
  WS02003073           JUNCTION     0.23     0.35     4.41     0  03:08        0.35
  WS02004138           JUNCTION     0.13     0.14     7.39     0  00:29        0.14
  WS02004139           JUNCTION     0.54     0.58     5.49     0  03:10        0.58
  WS02004401           JUNCTION     0.51     0.85     6.85     0  03:05        0.85
  WS02004402           JUNCTION     0.54     0.88     6.84     0  03:05        0.88
  WS02004403           JUNCTION     0.57     0.89     6.82     0  03:05        0.89
  WS02004404           JUNCTION     0.64     0.96     6.81     0  03:05        0.96
  WS02004405           JUNCTION     0.64     0.96     6.81     0  03:06        0.96
  WS02004406           JUNCTION     0.65     0.96     6.79     0  03:06        0.96
  WS02004407           JUNCTION     0.13     0.30     6.61     0  03:06        0.30
  WS02004409           JUNCTION     0.30     0.67     6.44     0  03:06        0.67
  WS02004410           JUNCTION     0.33     0.68     6.40     0  03:06        0.68
  WS02004411           JUNCTION     0.35     0.69     6.37     0  03:06        0.69
  WS02004412           JUNCTION     0.38     0.70     6.34     0  03:07        0.70
  WS02004413           JUNCTION     0.53     0.86     6.33     0  03:07        0.86
  WS02006109           JUNCTION     0.56     1.29     7.91     0  02:12        1.06
  WS02006110           JUNCTION     0.57     1.31     7.89     0  02:12        1.03
  WS02006111           JUNCTION     0.14     0.29     6.99     0  02:14        0.29
  WS02006112           JUNCTION     0.66     1.09     6.97     0  02:12        1.05
  WS02006113           JUNCTION     0.21     0.46     7.35     0  02:14        0.46
  WS02006115           JUNCTION     0.39     0.75     6.89     0  03:05        0.75
  WS02006116           JUNCTION     0.48     0.83     6.87     0  03:05        0.83
  WS02006228           JUNCTION     0.55     1.33     7.98     0  02:06        1.06
  WS02006229           JUNCTION     0.52     1.40     8.10     0  02:06        1.05
  WS02006230           JUNCTION     0.52     1.66     8.41     0  02:06        1.14
  WS02006231           JUNCTION     0.33     1.30     8.42     0  02:06        0.88
  WS02006232           JUNCTION     0.46     1.39     8.43     0  02:06        1.13
  WS02006234           JUNCTION     0.38     1.64     8.80     0  02:12        1.64
  WS02006235           JUNCTION     0.42     1.99     9.15     0  02:12        1.99
  WS02006238           JUNCTION     0.45     2.08     9.22     0  02:12        2.08
  WS02006239           JUNCTION     0.41     2.03     9.24     0  02:12        2.03
  WS02006240           JUNCTION     0.39     2.10     9.39     0  02:12        2.10
  WS02006242           JUNCTION     0.44     1.55     8.82     0  01:53        1.55
  WS02006243           JUNCTION     0.37     1.48     8.90     0  02:12        1.48
  WS02006245           JUNCTION     0.38     1.56     9.04     0  02:12        1.56
  WS02006247           JUNCTION     0.39     1.47     8.97     0  02:12        1.47
  WS02006248           JUNCTION     0.37     1.10     8.69     0  01:55        1.10
  WS02006249           JUNCTION     0.39     1.09     8.69     0  01:54        1.09
  WS02006251           JUNCTION     0.39     1.58     9.25     0  01:54        1.29
  WS02006252           JUNCTION     0.25     1.50     9.74     0  00:00        0.83
  WS02006256           JUNCTION     0.99     2.35     9.28     0  00:00        2.35
  WSF200               JUNCTION     0.13     0.31     5.54     0  03:07        0.31
  YS02001580           JUNCTION     0.11     1.05     9.59     0  01:47        1.05
  YS02001583           JUNCTION     0.14     1.14     9.64     0  01:47        0.97
  YS02001586           JUNCTION     0.24     1.13     9.30     0  01:47        1.13
  YS02001590           JUNCTION     0.34     1.40     9.26     0  01:46        1.37
  YS02001593           JUNCTION     0.28     1.37     9.24     0  01:47        1.29
  YS02001596           JUNCTION     0.38     1.73     9.14     0  01:47        1.65
  YS02001600           JUNCTION     0.47     1.87     9.00     0  01:47        1.86
  YS02001601           JUNCTION     0.66     2.06     8.90     0  01:46        2.06
  YS02001602           JUNCTION     0.56     1.87     8.77     0  01:47        1.87
  YS02001605           JUNCTION     0.52     1.78     8.68     0  01:47        1.77
  YS02001607           JUNCTION     0.49     1.68     8.53     0  01:47        1.65
  YS02001610           JUNCTION     0.53     1.68     8.48     0  01:47        1.68
  YS02001613           JUNCTION     0.49     1.68     8.53     0  01:47        1.67
  YS02001616           JUNCTION     0.42     1.61     8.52     0  01:47        1.60
  YS02001619           JUNCTION     0.40     1.61     8.54     0  01:47        1.61
  YS02001622           JUNCTION     0.39     1.62     8.52     0  01:47        1.57
  YS02001625           JUNCTION     0.64     1.78     8.38     0  01:47        1.78
  YS02001629           JUNCTION     0.52     1.85     8.40     0  01:47        1.85
  YS02001633           JUNCTION     0.60     2.06     8.51     0  01:50        1.98
  YS02001641           JUNCTION     0.56     1.99     8.42     0  01:50        1.91
  YS02001644           JUNCTION     0.55     1.92     8.35     0  01:50        1.89
  YS02001647           JUNCTION     0.33     1.78     8.39     0  02:00        1.62
  YS02001649           JUNCTION     0.38     1.92     8.31     0  02:00        1.74
  YS02001652           JUNCTION     0.26     2.16     8.76     0  01:50        1.57
  YS02001655           JUNCTION     0.19     2.20     9.05     0  01:50        1.35
  YS02001658           JUNCTION     0.13     1.73     8.88     0  01:51        1.10
  YS02001661           JUNCTION     0.15     0.89     8.30     0  01:52        0.87
  YS02001664           JUNCTION     0.07     0.27     8.20     0  01:51        0.27
  YS02001745           JUNCTION     0.06     0.60     8.12     0  01:52        0.57
  YS02001748           JUNCTION     0.11     1.06     8.14     0  01:51        0.93
  YS02001751           JUNCTION     0.15     1.59     8.47     0  01:50        1.12
  YS02001754           JUNCTION     0.22     1.69     8.30     0  01:50        1.38
  YS02001757           JUNCTION     0.39     1.80     8.07     0  01:52        1.73
  YS02001759           JUNCTION     0.33     1.76     8.13     0  01:52        1.68
  YS02001762           JUNCTION     0.32     1.99     8.39     0  01:49        1.66
  YS02001765           JUNCTION     0.30     1.91     8.36     0  01:49        1.63
  YS02001767           JUNCTION     0.30     2.03     8.52     0  01:49        1.62
  YS02001770           JUNCTION     0.31     1.95     8.44     0  01:49        1.76
  YS02001774           JUNCTION     0.37     2.01     8.43     0  01:49        1.89
  YS02001779           JUNCTION     0.20     1.68     8.37     0  01:49        1.68
  YS02001783           JUNCTION     0.28     1.57     7.71     0  01:49        1.20
  YS02001784           JUNCTION     0.29     1.30     7.37     0  01:49        1.11
  YS02001786           JUNCTION     0.24     0.96     6.99     0  01:49        0.86
  YS02001788           JUNCTION     0.18     0.62     6.60     0  01:51        0.62
  YS02001790           JUNCTION     0.21     0.72     6.37     0  01:51        0.71
  YS02001791           JUNCTION     0.13     0.43     5.90     0  01:51        0.43
  YS02001793           JUNCTION     0.07     0.30     5.13     0  01:55        0.28
  YS02001882           JUNCTION     0.34     1.83     8.55     0  01:48        1.61
  YS02001884           JUNCTION     0.43     1.93     8.55     0  01:48        1.70
  YS02001887           JUNCTION     0.50     1.91     8.45     0  01:48        1.80
  YS02001890           JUNCTION     0.53     1.81     8.32     0  01:48        1.81
  YS02001895           JUNCTION     0.31     1.75     8.50     0  01:48        1.55
  YS02001898           JUNCTION     0.32     1.77     8.51     0  01:48        1.56
  YS02001901           JUNCTION     0.43     1.87     8.48     0  01:48        1.66
  YS02001904           JUNCTION     0.41     1.84     8.47     0  01:48        1.63
  YS02001907           JUNCTION     0.72     1.96     8.25     0  01:48        1.96
  YS02001910           JUNCTION     0.52     2.03     8.53     0  01:48        1.83
  YS02001915           JUNCTION     0.34     2.00     8.72     0  01:48        1.68
  YS02001918           JUNCTION     0.18     1.81     8.88     0  01:50        1.39
  YS02001920           JUNCTION     0.26     2.14     9.15     0  01:50        1.47
  YS02001923           JUNCTION     0.13     2.03     9.29     0  01:50        1.24
  YS02001926           JUNCTION     0.16     1.90     9.35     0  01:50        1.08
  YS02001929           JUNCTION     0.09     1.78     9.47     0  01:50        0.87
  YS02006553           JUNCTION     0.72     2.08     8.37     0  01:49        1.96
  YS02006556           JUNCTION     0.69     2.19     8.50     0  01:49        1.92
  YS02006558           JUNCTION     0.74     2.26     8.53     0  01:49        1.96
  YS02006561           JUNCTION     0.17     1.42     8.08     0  01:49        0.87
  YS02163301           JUNCTION     0.54     1.94     8.46     0  01:50        1.89
  YS02163601           JUNCTION     0.62     2.08     8.48     0  01:50        1.99
  YS02164001           JUNCTION     0.55     2.01     8.47     0  01:50        1.91
  CC-1                 OUTFALL      0.00     0.00     0.00     0  00:00        0.00
  CC-2                 OUTFALL      0.00     0.00     0.00     0  00:00        0.00
  JK-1                 OUTFALL      0.00     0.00     0.00     0  00:00        0.00
  JK-2                 OUTFALL      0.00     0.00     0.00     0  00:00        0.00
  WSC                  OUTFALL      0.23     0.35     1.02     0  03:09        0.35
  CC-storage           STORAGE      0.79     1.49     6.99     0  02:12        1.49
  JK-storage           STORAGE      2.92     4.24     5.04     0  02:00        4.20
  XR-storage           STORAGE      7.82     9.26     7.26     0  08:00        9.26
  
  
  *******************
  Node Inflow Summary
  *******************
  
  -------------------------------------------------------------------------------------------------
                                  Maximum  Maximum                  Lateral       Total        Flow
                                  Lateral    Total  Time of Max      Inflow      Inflow     Balance
                                   Inflow   Inflow   Occurrence      Volume      Volume       Error
  Node                 Type           LPS      LPS  days hr:min    10^6 ltr    10^6 ltr     Percent
  -------------------------------------------------------------------------------------------------
  WS02001211           JUNCTION      7.35   200.09     0  02:23       0.212        5.44       0.611
  WS02001212           JUNCTION      0.00   202.49     0  03:13           0        5.41       0.290
  WS02001213           JUNCTION      0.00   204.59     0  03:22           0        5.39       0.331
  WS02003059           JUNCTION      0.00   209.93     0  03:22           0        5.38       0.591
  WS02003060           JUNCTION     16.53   750.42     0  03:07       0.476        8.81       0.159
  WS02003066           JUNCTION      0.00   536.23     0  03:07           0        2.99       0.040
  WS02003067           JUNCTION      0.00   536.23     0  03:07           0        2.99       0.134
  WS02003069           JUNCTION      0.32   750.73     0  03:08     0.00922         8.8       0.168
  WS02003072           JUNCTION      0.00   750.72     0  03:08           0        8.78       0.230
  WS02003073           JUNCTION      1.82   752.54     0  03:08      0.0524        8.82       0.236
  WS02004138           JUNCTION      0.00   380.00     0  00:00           0        5.25       0.053
  WS02004139           JUNCTION      0.32   191.16     0  00:29     0.00924        5.26       0.509
  WS02004401           JUNCTION      0.00   538.56     0  02:28           0        3.09       0.320
  WS02004402           JUNCTION      0.00   536.65     0  03:05           0        3.08       0.327
  WS02004403           JUNCTION      0.00   536.58     0  03:05           0        3.07       0.320
  WS02004404           JUNCTION      0.16   536.55     0  03:05     0.00467        3.06       0.268
  WS02004405           JUNCTION      0.04   536.52     0  03:05      0.0011        3.05       0.401
  WS02004406           JUNCTION      0.00   536.59     0  03:06           0        3.04       0.668
  WS02004407           JUNCTION      0.00   536.38     0  03:06           0        3.02       0.030
  WS02004409           JUNCTION      0.00   536.34     0  03:06           0        3.02       0.075
  WS02004410           JUNCTION      0.00   536.31     0  03:06           0        3.02       0.129
  WS02004411           JUNCTION      0.00   536.30     0  03:06           0        3.02       0.169
  WS02004412           JUNCTION      0.00   536.28     0  03:06           0        3.01       0.232
  WS02004413           JUNCTION      0.00   536.25     0  03:07           0           3       0.417
  WS02006109           JUNCTION      1.23   564.50     0  02:06      0.0354        3.13       0.296
  WS02006110           JUNCTION      0.00   565.75     0  02:06           0        3.12       0.195
  WS02006111           JUNCTION      0.00   561.07     0  02:38           0        3.11       0.024
  WS02006112           JUNCTION      0.00   544.07     0  02:14           0        3.11       0.554
  WS02006113           JUNCTION      0.00   571.43     0  02:12           0        3.11       0.049
  WS02006115           JUNCTION      0.00   558.22     0  02:19           0         3.1       0.198
  WS02006116           JUNCTION      0.00   540.79     0  02:08           0        3.09       0.066
  WS02006228           JUNCTION      0.00   562.21     0  02:06           0         3.1       0.131
  WS02006229           JUNCTION      0.00   561.80     0  02:06           0         3.1       0.148
  WS02006230           JUNCTION     10.28   613.42     0  02:12       0.296        3.11       0.148
  WS02006231           JUNCTION      0.00   585.56     0  02:12           0        2.81      -0.119
  WS02006232           JUNCTION      0.00   583.04     0  02:12           0        2.82       0.352
  WS02006234           JUNCTION      0.00   572.09     0  02:12           0        2.81      -0.304
  WS02006235           JUNCTION      0.00   563.07     0  02:06           0        2.88       0.288
  WS02006238           JUNCTION      0.00   427.94     0  03:05           0        2.04      -0.160
  WS02006239           JUNCTION      0.00   426.87     0  03:05           0        2.01      -0.042
  WS02006240           JUNCTION      0.00   424.25     0  03:05           0        1.97      -0.058
  WS02006242           JUNCTION      0.00   423.51     0  03:05           0        1.95      -0.168
  WS02006243           JUNCTION      0.00   422.62     0  03:05           0        1.93      -0.119
  WS02006245           JUNCTION      0.00   422.40     0  03:06           0        1.94       0.587
  WS02006247           JUNCTION      0.00   422.03     0  03:05           0        1.94      -0.012
  WS02006248           JUNCTION      0.00   423.02     0  03:06           0        1.93      -0.243
  WS02006249           JUNCTION      0.00   468.28     0  03:15           0        2.18       0.862
  WS02006251           JUNCTION      0.08   416.12     0  03:10     0.00222        2.18       0.023
  WS02006252           JUNCTION      0.00   400.00     0  00:00           0        2.17      -0.407
  WS02006256           JUNCTION      0.00   300.00     0  00:00           0        1.28      -0.680
  WSF200               JUNCTION      0.00   536.23     0  03:07           0        2.99       0.015
  YS02001580           JUNCTION      0.00   168.11     0  01:47           0     0.00471       2.378
  YS02001583           JUNCTION      0.00   266.45     0  01:47           0       0.015     -10.145
  YS02001586           JUNCTION    431.39   431.43     0  01:53        1.08        1.09       0.154
  YS02001590           JUNCTION      0.00   317.97     0  01:57           0        1.01      -0.046
  YS02001593           JUNCTION      0.00   318.21     0  01:51           0        1.01       0.009
  YS02001596           JUNCTION      0.00   318.01     0  01:56           0        1.01       0.001
  YS02001600           JUNCTION      0.00   318.09     0  01:51           0        1.01      -0.002
  YS02001601           JUNCTION    773.46  1091.24     0  01:51        1.45        2.46       0.012
  YS02001602           JUNCTION      0.00   570.33     0  01:47           0        1.84       0.016
  YS02001605           JUNCTION      0.00   570.23     0  01:47           0        1.78       0.015
  YS02001607           JUNCTION      0.00   570.17     0  01:47           0        1.78       0.098
  YS02001610           JUNCTION      0.00   552.10     0  01:47           0        1.77       0.115
  YS02001613           JUNCTION      0.00   559.50     0  01:47           0        1.61       0.091
  YS02001616           JUNCTION      0.00   577.00     0  01:47           0        1.61       0.011
  YS02001619           JUNCTION    743.38  1007.27     0  01:47        1.66        3.27      -0.011
  YS02001622           JUNCTION      0.00  1000.80     0  01:47           0        3.27      -0.010
  YS02001625           JUNCTION      0.00   965.98     0  01:47           0        3.26       0.266
  YS02001629           JUNCTION      0.00   965.30     0  01:47           0        2.95       0.019
  YS02001633           JUNCTION    593.15  1435.46     0  01:49         1.1        4.05       0.081
  YS02001641           JUNCTION      0.00  1437.43     0  01:49           0        4.05       0.067
  YS02001644           JUNCTION    510.90  1900.70     0  01:49       0.897        4.94       0.065
  YS02001647           JUNCTION      0.00  1901.34     0  01:49           0        4.93       0.010
  YS02001649           JUNCTION      0.00  2170.71     0  01:49           0        5.79       0.008
  YS02001652           JUNCTION      0.00   608.78     0  01:52           0       0.858      -0.083
  YS02001655           JUNCTION      0.15   608.69     0  01:52     0.00443       0.857      -0.160
  YS02001658           JUNCTION      0.00   637.76     0  02:00           0       0.852      -0.087
  YS02001661           JUNCTION      0.00   518.55     0  01:51           0       0.852       0.054
  YS02001664           JUNCTION    510.23   510.23     0  01:51       0.852       0.852      -0.015
  YS02001745           JUNCTION    322.43   322.43     0  01:50       0.492       0.492       0.323
  YS02001748           JUNCTION      0.04   555.16     0  01:53      0.0013       0.493      -0.493
  YS02001751           JUNCTION      0.01   450.79     0  01:54    0.000317       0.502      -0.005
  YS02001754           JUNCTION      0.26   374.98     0  01:51     0.00749       0.515      -0.236
  YS02001757           JUNCTION      0.00  3145.40     0  01:52           0        8.08       0.041
  YS02001759           JUNCTION    466.15  1130.82     0  01:50       0.717        1.79      -0.006
  YS02001762           JUNCTION      0.00   663.62     0  01:50           0        1.07       0.005
  YS02001765           JUNCTION      0.00   659.96     0  01:51           0        1.07       0.021
  YS02001767           JUNCTION      0.54   657.09     0  01:51      0.0154        1.07       0.006
  YS02001770           JUNCTION    637.53   652.08     0  01:50        1.06         1.1      -0.019
  YS02001774           JUNCTION      0.00   465.31     0  01:49           0      0.0654       1.867
  YS02001779           JUNCTION      0.01   470.47     0  01:49    0.000144      0.0218      -2.061
  YS02001783           JUNCTION      0.00  1150.72     0  01:50           0        2.99       0.008
  YS02001784           JUNCTION      1.06  1151.56     0  01:50      0.0305        3.02       0.016
  YS02001786           JUNCTION      0.06  1151.83     0  01:50     0.00162        3.02       0.023
  YS02001788           JUNCTION      0.07  1153.41     0  01:50     0.00204        3.02       0.010
  YS02001790           JUNCTION      0.15  1160.85     0  01:52     0.00446        3.03       0.014
  YS02001791           JUNCTION      0.00  1281.30     0  01:51           0        3.03      -0.011
  YS02001793           JUNCTION      0.00  1234.97     0  01:52           0        3.03       0.007
  YS02001882           JUNCTION      0.00   118.57     0  01:48           0      0.0129       4.851
  YS02001884           JUNCTION      0.00   141.58     0  01:48           0      0.0487       5.364
  YS02001887           JUNCTION    505.60   506.59     0  01:48       0.748       0.781       0.546
  YS02001890           JUNCTION      0.00   509.21     0  01:48           0        0.74       0.684
  YS02001895           JUNCTION      0.00   511.13     0  01:48           0       0.734       0.219
  YS02001898           JUNCTION      0.00   507.82     0  01:49           0       0.733       0.010
  YS02001901           JUNCTION      0.00   513.14     0  01:49           0       0.735       0.427
  YS02001904           JUNCTION      0.00   513.83     0  01:49           0        0.74       0.362
  YS02001907           JUNCTION      0.00  1457.47     0  01:51           0        2.24       0.795
  YS02001910           JUNCTION      0.00   978.21     0  01:51           0        1.51       0.467
  YS02001915           JUNCTION    521.68   977.13     0  01:51       0.915        1.56       0.096
  YS02001918           JUNCTION      0.00   529.58     0  01:49           0       0.677       0.025
  YS02001920           JUNCTION      2.87   491.18     0  01:49      0.0827       0.655       0.130
  YS02001923           JUNCTION      0.04   601.73     0  01:49     0.00109       0.556      -0.115
  YS02001926           JUNCTION      0.05   906.59     0  01:49      0.0015       0.536      -0.229
  YS02001929           JUNCTION    265.06   731.76     0  01:50       0.515       0.521      -0.131
  YS02006553           JUNCTION      0.00   791.87     0  02:01           0           2       0.576
  YS02006556           JUNCTION      0.00   792.59     0  02:01           0        2.01       0.389
  YS02006558           JUNCTION    633.75  1167.84     0  01:49        1.03        3.02       0.110
  YS02006561           JUNCTION      0.00  1167.32     0  01:49           0        2.99      -0.001
  YS02163301           JUNCTION      0.00   913.76     0  01:48           0        2.95       0.048
  YS02163601           JUNCTION      0.11  1435.38     0  01:49     0.00317        4.04       0.117
  YS02164001           JUNCTION      0.00  1435.60     0  01:49           0        4.04       0.056
  CC-1                 OUTFALL       0.00   683.00     0  00:00           0        3.45       0.000
  CC-2                 OUTFALL       0.00   683.00     0  00:00           0        3.21       0.000
  JK-1                 OUTFALL       0.00  1000.00     0  00:00           0        1.65       0.000
  JK-2                 OUTFALL       0.00  1000.00     0  00:00           0      0.0484       0.000
  WSC                  OUTFALL       0.00   752.54     0  03:09           0         8.8       0.000
  CC-storage           STORAGE       0.00  3147.77     0  01:52           0        10.3      -0.256
  JK-storage           STORAGE       0.00  1209.76     0  01:52           0        3.18       0.246
  XR-storage           STORAGE     200.00   200.00     0  00:00        5.76        6.36       0.001
  
  
  **********************
  Node Surcharge Summary
  **********************
  
  Surcharging occurs when water rises above the top of the highest conduit.
  ---------------------------------------------------------------------
                                               Max. Height   Min. Depth
                                   Hours       Above Crown    Below Rim
  Node                 Type      Surcharged         Meters       Meters
  ---------------------------------------------------------------------
  WS02006109           JUNCTION        1.27          0.473        1.347
  WS02006110           JUNCTION        0.79          0.400        1.450
  WS02006112           JUNCTION        0.82          0.089        1.591
  WS02006228           JUNCTION        1.26          0.498        1.702
  WS02006229           JUNCTION        1.27          0.604        1.846
  WS02006230           JUNCTION        0.79          0.580        0.990
  WS02006231           JUNCTION        0.90          0.588        0.942
  WS02006232           JUNCTION        1.29          0.688        0.792
  WS02006234           JUNCTION        1.11          0.923        0.317
  WS02006235           JUNCTION        1.24          1.279        0.011
  WS02006238           JUNCTION        1.28          1.361        0.069
  WS02006239           JUNCTION        1.25          1.290        0.000
  WS02006240           JUNCTION        1.26          1.390        0.000
  WS02006242           JUNCTION        1.28          0.820        0.000
  WS02006243           JUNCTION        1.26          0.770        0.000
  WS02006245           JUNCTION        1.26          0.850        0.000
  WS02006247           JUNCTION        1.26          0.760        0.000
  WS02006248           JUNCTION        1.25          0.380        0.000
  WS02006249           JUNCTION        1.25          0.390        0.000
  WS02006251           JUNCTION        0.97          0.549        0.631
  WS02006252           JUNCTION        1.46          1.100        0.000
  WS02006256           JUNCTION        3.87          2.050        0.000
  YS02001580           JUNCTION        0.37          0.450        0.000
  YS02001583           JUNCTION        0.37          0.500        0.000
  YS02001586           JUNCTION        0.50          0.510        0.000
  YS02001590           JUNCTION        0.56          0.750        0.000
  YS02001593           JUNCTION        0.57          0.755        0.085
  YS02001596           JUNCTION        0.65          0.996        0.074
  YS02001600           JUNCTION        0.78          1.190        0.000
  YS02001601           JUNCTION        1.16          1.440        0.000
  YS02001602           JUNCTION        1.02          1.270        0.000
  YS02001605           JUNCTION        0.96          1.180        0.000
  YS02001607           JUNCTION        0.53          0.680        0.000
  YS02001610           JUNCTION        0.56          0.680        0.000
  YS02001613           JUNCTION        0.53          0.685        0.015
  YS02001616           JUNCTION        0.49          0.610        0.000
  YS02001619           JUNCTION        0.48          0.610        0.000
  YS02001622           JUNCTION        0.47          0.620        0.000
  YS02001625           JUNCTION        0.63          0.780        0.000
  YS02001629           JUNCTION        0.43          0.470        0.000
  YS02001633           JUNCTION        0.65          1.041        0.019
  YS02001641           JUNCTION        0.59          0.988        0.112
  YS02001644           JUNCTION        0.56          0.920        0.000
  YS02001647           JUNCTION        0.38          0.782        0.118
  YS02001649           JUNCTION        0.48          0.921        0.129
  YS02001652           JUNCTION        0.31          1.130        0.000
  YS02001655           JUNCTION        0.17          1.200        0.000
  YS02001658           JUNCTION        0.02          0.733        0.567
  YS02001751           JUNCTION        0.06          0.590        0.610
  YS02001754           JUNCTION        0.21          0.640        0.510
  YS02001757           JUNCTION        0.54          0.804        0.406
  YS02001759           JUNCTION        0.44          0.765        0.445
  YS02001762           JUNCTION        0.41          0.989        0.161
  YS02001765           JUNCTION        0.37          0.913        0.187
  YS02001767           JUNCTION        0.34          1.030        0.000
  YS02001770           JUNCTION        0.31          0.920        0.000
  YS02001774           JUNCTION        0.40          1.008        0.042
  YS02001779           JUNCTION        0.21          0.680        0.000
  YS02001783           JUNCTION        0.34          0.771        0.829
  YS02001784           JUNCTION        0.32          0.498        0.992
  YS02001786           JUNCTION        0.23          0.161        1.269
  YS02001882           JUNCTION        0.29          0.830        0.000
  YS02001884           JUNCTION        0.30          0.870        0.000
  YS02001887           JUNCTION        0.33          0.863        0.087
  YS02001890           JUNCTION        0.34          0.760        0.000
  YS02001895           JUNCTION        0.28          0.750        0.000
  YS02001898           JUNCTION        0.28          0.740        0.000
  YS02001901           JUNCTION        0.32          0.870        0.000
  YS02001904           JUNCTION        0.31          0.836        0.014
  YS02001907           JUNCTION        0.50          0.950        0.000
  YS02001910           JUNCTION        0.37          1.027        0.073
  YS02001915           JUNCTION        0.29          1.000        0.000
  YS02001918           JUNCTION        0.22          0.810        0.000
  YS02001920           JUNCTION        0.23          1.140        0.000
  YS02001923           JUNCTION        0.01          0.820        0.000
  YS02001926           JUNCTION        0.01          0.900        0.000
  YS02001929           JUNCTION        0.01          0.780        0.000
  YS02006553           JUNCTION        0.51          1.084        0.106
  YS02006556           JUNCTION        0.43          1.154        0.196
  YS02006558           JUNCTION        0.42          1.161        0.239
  YS02006561           JUNCTION        0.18          0.619        0.531
  YS02163301           JUNCTION        0.63          0.943        0.087
  YS02163601           JUNCTION        0.67          1.080        0.000
  YS02164001           JUNCTION        0.60          1.009        0.091
  
  
  *********************
  Node Flooding Summary
  *********************
  
  Flooding refers to all water that overflows a node, whether it ponds or not.
  --------------------------------------------------------------------------
                                                             Total   Maximum
                                 Maximum   Time of Max       Flood    Ponded
                        Hours       Rate    Occurrence      Volume     Depth
  Node                 Flooded       LPS   days hr:min    10^6 ltr    Meters
  --------------------------------------------------------------------------
  WS02006239              0.01      1.61      0  02:12       0.000     0.000
  WS02006240              0.01      3.39      0  02:12       0.000     0.000
  WS02006242              0.01     40.41      0  01:53       0.000     0.000
  WS02006243              0.01      2.11      0  02:12       0.000     0.000
  WS02006245              0.01      2.09      0  02:12       0.000     0.000
  WS02006247              0.01      1.86      0  02:12       0.000     0.000
  WS02006248              0.01     17.72      0  02:00       0.000     0.000
  WS02006249              0.94    117.50      0  01:54       0.227     0.000
  WS02006252              0.01    269.50      0  03:10       0.000     0.000
  WS02006256              1.18    293.19      0  00:00       0.406     0.000
  YS02001580              0.01    102.23      0  01:47       0.001     0.000
  YS02001583              0.01    237.18      0  01:47       0.000     0.000
  YS02001586              0.26    136.29      0  01:48       0.068     0.000
  YS02001590              0.01     94.05      0  01:46       0.000     0.000
  YS02001600              0.01      4.76      0  01:47       0.000     0.000
  YS02001601              0.44    693.42      0  01:51       0.615     0.000
  YS02001602              0.34     61.97      0  01:51       0.068     0.000
  YS02001605              0.01      3.43      0  01:47       0.000     0.000
  YS02001607              0.01     30.22      0  01:47       0.000     0.000
  YS02001610              0.29    252.28      0  01:53       0.164     0.000
  YS02001616              0.01     78.34      0  01:47       0.000     0.000
  YS02001619              0.01    180.72      0  01:47       0.000     0.000
  YS02001622              0.01    323.40      0  01:47       0.001     0.000
  YS02001625              0.26    723.67      0  01:52       0.302     0.000
  YS02001629              0.03    370.40      0  01:47       0.004     0.000
  YS02001644              0.01     18.26      0  01:50       0.000     0.000
  YS02001652              0.01     89.14      0  01:50       0.000     0.000
  YS02001655              0.01    332.34      0  01:50       0.000     0.000
  YS02001767              0.01    195.17      0  01:49       0.000     0.000
  YS02001770              0.01    280.91      0  01:49       0.000     0.000
  YS02001779              0.01    428.69      0  01:49       0.004     0.000
  YS02001882              0.01     22.60      0  01:48       0.000     0.000
  YS02001884              0.01     24.74      0  01:48       0.000     0.000
  YS02001890              0.01    150.91      0  01:48       0.001     0.000
  YS02001895              0.01     89.67      0  01:48       0.000     0.000
  YS02001898              0.01    193.25      0  01:48       0.000     0.000
  YS02001901              0.01     27.10      0  01:48       0.000     0.000
  YS02001907              0.17    937.39      0  01:51       0.233     0.000
  YS02001915              0.01    209.95      0  01:48       0.000     0.000
  YS02001918              0.01    194.67      0  01:50       0.003     0.000
  YS02001920              0.01     49.35      0  01:50       0.000     0.000
  YS02001923              0.01    219.51      0  01:50       0.001     0.000
  YS02001926              0.01    462.95      0  01:50       0.003     0.000
  YS02001929              0.01    444.71      0  01:50       0.001     0.000
  YS02163601              0.01      4.06      0  01:50       0.000     0.000
  
  
  **********************
  Storage Volume Summary
  **********************
  
  ------------------------------------------------------------------------------------------------
                         Average    Avg   Evap  Exfil     Maximum    Max    Time of Max    Maximum
                          Volume   Pcnt   Pcnt   Pcnt      Volume   Pcnt     Occurrence    Outflow
  Storage Unit           1000 m³   Full   Loss   Loss     1000 m³   Full    days hr:min        LPS
  ------------------------------------------------------------------------------------------------
  CC-storage               2.206   34.4    0.0    0.0       4.166   65.0       0  02:12    1783.53
  JK-storage               0.147   50.4    0.0    0.0       0.213   73.1       0  02:00    2300.00
  XR-storage               0.939   65.2    0.0    0.0       1.111   77.2       0  08:00     380.00
  
  
  ***********************
  Outfall Loading Summary
  ***********************
  
  -----------------------------------------------------------
                         Flow       Avg       Max       Total
                         Freq      Flow      Flow      Volume
  Outfall Node           Pcnt       LPS       LPS    10^6 ltr
  -----------------------------------------------------------
  CC-1                  32.38    683.00    683.00       3.446
  CC-2                  30.09    683.00    683.00       3.210
  JK-1                  14.12   1000.00   1000.00       1.647
  JK-2                   0.26   1000.00   1000.00       0.048
  WSC                   99.92    371.02    752.54       8.795
  -----------------------------------------------------------
  System                35.35   3737.02   3366.23      17.146
  
  
  ********************
  Link Flow Summary
  ********************
  
  -----------------------------------------------------------------------------
                                 Maximum  Time of Max   Maximum    Max/    Max/
                                  |Flow|   Occurrence   |Veloc|    Full    Full
  Link                 Type          LPS  days hr:min     m/sec    Flow   Depth
  -----------------------------------------------------------------------------
  1                    CONDUIT    752.54     0  03:09      3.08    0.26    0.35
  WS02001211WS02001212 CONDUIT    202.49     0  03:13      0.54    0.15    0.51
  WS02001212WS02001213 CONDUIT    204.59     0  03:22      1.04    0.32    0.36
  WS02001213WS02003059 CONDUIT    209.93     0  03:22      0.47    0.35    0.67
  WS02003059WS02003060 CONDUIT    217.03     0  03:22      0.67    0.14    0.58
  WS02003060WS02003069 CONDUIT    750.41     0  03:08      1.77    0.29    0.40
  WS02003066WSF200     CONDUIT    536.23     0  03:07      2.73    0.09    0.23
  WS02003067WS02003066 CONDUIT    536.23     0  03:07      1.21    0.17    0.42
  WS02003069WS02003072 CONDUIT    750.72     0  03:08      1.51    0.36    0.45
  WS02003072WS02003073 CONDUIT    750.72     0  03:08      1.60    1.62    0.43
  WS02004138WS02004139 CONDUIT    190.84     0  00:29      2.17    0.04    0.33
  WS02004139WS02001211 CONDUIT    192.74     0  02:23      0.54    0.24    0.47
  WS02004401WS02004402 CONDUIT    536.65     0  03:05      0.97    0.64    0.86
  WS02004402WS02004403 CONDUIT    536.58     0  03:05      0.97    0.77    0.88
  WS02004403WS02004404 CONDUIT    536.39     0  03:05      0.92    0.39    0.93
  WS02004404WS02004405 CONDUIT    536.48     0  03:05      1.08    5.26    0.96
  WS02004405WS02004406 CONDUIT    536.59     0  03:06      0.99    1.06    0.96
  WS02004406WS02004407 CONDUIT    536.38     0  03:06      1.04    0.24    0.63
  WS02004407WS02004409 CONDUIT    536.34     0  03:06      1.57    0.19    0.48
  WS02004409WS02004410 CONDUIT    536.31     0  03:06      1.05    0.69    0.67
  WS02004410WS02004411 CONDUIT    536.30     0  03:06      1.01    0.73    0.69
  WS02004411WS02004412 CONDUIT    536.28     0  03:06      0.95    0.76    0.69
  WS02004412WS02004413 CONDUIT    536.25     0  03:07      0.82    0.36    0.78
  WS02004413WS02003067 CONDUIT    536.23     0  03:07      1.11    0.23    0.59
  WS02006109WS02006110 CONDUIT    565.75     0  02:06      1.13    1.09    1.00
  WS02006110WS02006113 CONDUIT    571.43     0  02:12      1.38    0.52    0.78
  WS02006111WS02006112 CONDUIT    544.07     0  02:14      1.82    0.26    0.67
  WS02006112WS02006115 CONDUIT    558.22     0  02:19      0.88    0.33    0.87
  WS02006113WS02006111 CONDUIT    561.07     0  02:38      2.47    0.67    0.46
  WS02006115WS02006116 CONDUIT    540.79     0  02:08      1.10    0.69    0.76
  WS02006116WS02004401 CONDUIT    538.56     0  02:28      0.98    0.74    0.84
  WS02006228WS02006109 CONDUIT    563.27     0  02:06      1.12    2.46    1.00
  WS02006229WS02006228 CONDUIT    562.21     0  02:06      1.15    1.86    1.00
  WS02006230WS02006229 CONDUIT    561.80     0  02:06      1.46   12.50    1.00
  WS02006231WS02006230 CONDUIT    603.14     0  02:12      1.62    9.15    1.00
  WS02006232WS02006231 CONDUIT    585.56     0  02:12      1.52    1.23    1.00
  WS02006234WS02006232 CONDUIT    583.04     0  02:12      1.51    1.18    1.00
  WS02006235WS02006234 CONDUIT    572.09     0  02:12      1.49    6.04    1.00
  WS02006238WS02006235 CONDUIT    432.81     0  03:05      1.57    0.97    1.00
  WS02006239WS02006238 CONDUIT    427.94     0  03:05      1.11    1.37    1.00
  WS02006240WS02006239 CONDUIT    426.87     0  03:05      1.24    1.34    1.00
  WS02006242WS02006240 CONDUIT    424.25     0  03:05      1.12    1.68    1.00
  WS02006243WS02006242 CONDUIT    423.51     0  03:05      1.39    0.90    1.00
  WS02006245WS02006243 CONDUIT    422.62     0  03:05      1.45    1.25    1.00
  WS02006247WS02006245 CONDUIT    422.40     0  03:06      1.44    3.35    1.00
  WS02006248WS02006247 CONDUIT    422.03     0  03:05      1.45    0.92    1.00
  WS02006249WS02006248 CONDUIT    423.02     0  03:06      1.37    2.32    1.00
  WS02006251WS02006249 CONDUIT    468.28     0  03:15      1.99    1.35    1.00
  WS02006252WS02006251 CONDUIT    412.09     0  01:54     25.11    1.51    1.00
  WS02006256WS02006235 CONDUIT    289.22     0  01:46      4.23    3.06    1.00
  WSF200WS02003060     CONDUIT    536.23     0  03:07      1.76    0.12    0.32
  YS02001580YS02001583 CONDUIT    168.11     0  01:47      0.89    0.65    1.00
  YS02001583YS02001586 CONDUIT    203.97     0  01:47      0.90    0.31    1.00
  YS02001586YS02001590 CONDUIT    317.97     0  01:57      1.29    0.56    1.00
  YS02001590YS02001593 CONDUIT    318.21     0  01:51      1.13    2.00    1.00
  YS02001593YS02001596 CONDUIT    318.01     0  01:56      1.73    0.50    1.00
  YS02001596YS02001600 CONDUIT    318.09     0  01:51      1.20    0.62    1.00
  YS02001600YS02001601 CONDUIT    318.01     0  01:58      1.12    0.55    1.00
  YS02001601YS02001602 CONDUIT    570.33     0  01:47      2.02    2.06    1.00
  YS02001602YS02001605 CONDUIT    570.23     0  01:47      2.02   12.07    1.00
  YS02001605YS02001607 CONDUIT    570.17     0  01:47      2.02    3.13    1.00
  YS02001607YS02001610 CONDUIT    552.10     0  01:47      0.70    0.52    1.00
  YS02001610YS02001613 CONDUIT    559.50     0  01:47      0.71    0.65    1.00
  YS02001613YS02001616 CONDUIT    577.00     0  01:47      0.74    0.49    1.00
  YS02001616YS02001619 CONDUIT    521.36     0  01:47      0.66    0.91    1.00
  YS02001619YS02001622 CONDUIT   1000.80     0  01:47      1.28    1.48    1.00
  YS02001622YS02001625 CONDUIT    965.98     0  01:47      1.23    0.52    1.00
  YS02001625YS02001629 CONDUIT    965.30     0  01:47      1.23    0.46    1.00
  YS02001629YS02163301 CONDUIT    913.76     0  01:48      1.16    1.13    1.00
  YS02001633YS02163601 CONDUIT   1435.27     0  01:49      1.83    1.51    1.00
  YS02001641YS02001644 CONDUIT   1438.70     0  01:49      1.83    4.65    1.00
  YS02001644YS02001647 CONDUIT   1901.34     0  01:49      2.43    1.12    1.00
  YS02001647YS02001649 CONDUIT   1886.17     0  01:49      2.40    1.00    1.00
  YS02001649YS02001757 CONDUIT   2170.67     0  01:49      2.76    1.32    1.00
  YS02001652YS02001649 CONDUIT    608.79     0  01:52      0.83    0.30    1.00
  YS02001655YS02001652 CONDUIT    608.78     0  01:52      1.43    0.30    1.00
  YS02001658YS02001655 CONDUIT    608.54     0  01:52      2.04    0.26    1.00
  YS02001661YS02001658 CONDUIT    637.76     0  02:00      2.40    0.25    0.91
  YS02001664YS02001661 CONDUIT    518.55     0  01:51      2.32    0.16    0.58
  YS02001745YS02001748 CONDUIT    555.12     0  01:53      2.25    0.21    0.69
  YS02001748YS02001751 CONDUIT    450.78     0  01:54      1.83    0.23    1.00
  YS02001751YS02001754 CONDUIT    374.72     0  01:51      1.51    0.18    1.00
  YS02001754YS02001757 CONDUIT    374.53     0  01:51      0.53    0.15    1.00
  YS02001757CaochengTiaoxuchi CONDUIT   3147.77     0  01:52      4.01    1.36    1.00
  YS02001759YS02001757 CONDUIT   1132.21     0  01:50      1.44    0.80    1.00
  YS02001762YS02001759 CONDUIT    666.62     0  01:50      0.85    0.77    1.00
  YS02001765YS02001762 CONDUIT    663.62     0  01:50      0.84    0.62    1.00
  YS02001767YS02001765 CONDUIT    659.96     0  01:51      0.84    0.83    1.00
  YS02001770YS02001767 CONDUIT    656.55     0  01:51      0.86    2.60    1.00
  YS02001774YS02001770 CONDUIT    465.31     0  01:49      0.59    0.30    1.00
  YS02001779YS02001774 CONDUIT    470.46     0  01:49      0.61    0.24    1.00
  YS02001783YS02001784 CONDUIT   1150.50     0  01:50      2.29    1.59    1.00
  YS02001784YS02001785 CONDUIT   1151.77     0  01:50      2.29    2.68    1.00
  YS02001786YS02001788 CONDUIT   1153.34     0  01:50      2.48    2.22    0.89
  YS02001788YS02001790 CONDUIT   1160.70     0  01:52      2.70    0.86    0.84
  YS02001790YS02001791 CONDUIT   1281.30     0  01:51      3.42    1.39    0.70
  YS02001791YS02001793 CONDUIT   1234.97     0  01:52      6.52    0.53    0.45
  YS02001793JiankangQianchi CONDUIT   1209.76     0  01:52      2.35    0.10    0.65
  YS02001882YS02001884 CONDUIT    118.57     0  01:48      0.15    0.14    1.00
  YS02001884YS02001887 CONDUIT    141.58     0  01:48      0.18    0.19    1.00
  YS02001887YS02001890 CONDUIT    509.21     0  01:48      0.65    0.87    1.00
  YS02001890YS02001895 CONDUIT    511.13     0  01:48      0.65    0.24    1.00
  YS02001895YS02001898 CONDUIT    507.82     0  01:49      0.65    0.88    1.00
  YS02001898YS02001901 CONDUIT    513.14     0  01:49      0.65    0.33    1.00
  YS02001901YS02001904 CONDUIT    513.83     0  01:49      0.65    0.80    1.00
  YS02001904YS02001907 CONDUIT    514.96     0  01:49      0.66    0.18    1.00
  YS02001907YS02006553 CONDUIT    791.87     0  02:01      0.88    0.93    1.00
  YS02001910YS02001907 CONDUIT    978.65     0  01:51      1.25    0.55    1.00
  YS02001915YS02001910 CONDUIT    978.21     0  01:51      1.25    0.49    1.00
  YS02001918YS02001915 CONDUIT    529.58     0  01:49      0.69    0.29    1.00
  YS02001920YS02001918 CONDUIT    488.31     0  01:49      0.66    0.47    1.00
  YS02001923YS02001920 CONDUIT    495.08     0  01:49      0.76    0.22    1.00
  YS02001926YS02001923 CONDUIT    681.20     0  01:49      1.11    0.97    1.00
  YS02001929YS02001926 CONDUIT    478.24     0  01:50      1.19    0.23    1.00
  YS02006553YS02006556 CONDUIT    792.59     0  02:01      1.01    0.68    1.00
  YS02006556YS02006558 CONDUIT    793.12     0  02:01      1.01    0.63    1.00
  YS02006558YS02006561 CONDUIT   1167.32     0  01:49      4.13    2.58    1.00
  YS02006561YS02001783 CONDUIT   1150.72     0  01:50      2.29    0.60    1.00
  YS02163301YS02001633 CONDUIT    913.63     0  01:48      1.16    0.86    1.00
  YS02163601YS02164001 CONDUIT   1435.60     0  01:49      1.83    1.27    1.00
  YS02164001YS02001641 CONDUIT   1437.43     0  01:49      1.83    1.96    1.00
  CC-R1                PUMP       683.00     0  00:00              1.00
  CC-R2                PUMP       683.00     0  00:00              1.00
  CC-S1                PUMP       200.00     0  00:00              1.00
  CC-S2                PUMP       200.00     0  00:00              1.00
  JK-R1                PUMP      1000.00     0  00:00              1.00
  JK-R2                PUMP      1000.00     0  00:00              1.00
  JK-S                 PUMP       300.00     0  00:00              1.00
  XR-1                 PUMP        95.00     0  00:00              1.00
  XR-2                 PUMP        95.00     0  00:00              1.00
  XR-3                 PUMP        95.00     0  00:00              1.00
  XR-4                 PUMP        95.00     0  00:00              1.00
  
  
  ***************************
  Flow Classification Summary
  ***************************
  
  -------------------------------------------------------------------------------------
                      Adjusted    ---------- Fraction of Time in Flow Class ---------- 
                       /Actual         Up    Down  Sub   Sup   Up    Down  Norm  Inlet 
  Conduit               Length    Dry  Dry   Dry   Crit  Crit  Crit  Crit  Ltd   Ctrl  
  -------------------------------------------------------------------------------------
  1                       1.00   0.00  0.00  0.00  0.00  1.00  0.00  0.00  0.17  0.00
  WS02001211WS02001212    1.00   0.00  0.02  0.00  0.98  0.00  0.00  0.00  0.00  0.00
  WS02001212WS02001213    1.00   0.02  0.00  0.00  0.17  0.00  0.80  0.00  0.00  0.00
  WS02001213WS02003059    1.00   0.00  0.01  0.00  0.99  0.00  0.00  0.00  0.00  0.00
  WS02003059WS02003060    1.00   0.00  0.00  0.00  1.00  0.00  0.00  0.00  0.03  0.00
  WS02003060WS02003069    1.00   0.00  0.00  0.00  0.98  0.02  0.00  0.00  0.72  0.00
  WS02003066WSF200        1.00   0.13  0.00  0.00  0.00  0.87  0.00  0.00  0.75  0.00
  WS02003067WS02003066    1.00   0.10  0.02  0.00  0.88  0.00  0.00  0.00  0.00  0.00
  WS02003069WS02003072    1.00   0.00  0.00  0.00  1.00  0.00  0.00  0.00  0.80  0.00
  WS02003072WS02003073    1.00   0.00  0.00  0.00  0.00  0.00  0.00  1.00  0.00  0.00
  WS02004138WS02004139    1.00   0.00  0.00  0.00  0.97  0.01  0.00  0.02  0.98  0.00
  WS02004139WS02001211    1.00   0.00  0.00  0.00  0.99  0.00  0.00  0.00  0.00  0.00
  WS02004401WS02004402    1.00   0.02  0.00  0.00  0.98  0.00  0.00  0.00  0.00  0.00
  WS02004402WS02004403    1.00   0.02  0.00  0.00  0.97  0.00  0.00  0.00  0.00  0.00
  WS02004403WS02004404    1.00   0.00  0.03  0.00  0.97  0.00  0.00  0.00  0.00  0.00
  WS02004404WS02004405    1.00   0.00  0.00  0.00  1.00  0.00  0.00  0.00  0.00  0.00
  WS02004405WS02004406    1.00   0.00  0.00  0.00  1.00  0.00  0.00  0.00  0.00  0.00
  WS02004406WS02004407    1.00   0.00  0.05  0.00  0.95  0.00  0.00  0.00  0.00  0.00
  WS02004407WS02004409    1.00   0.05  0.00  0.00  0.94  0.01  0.00  0.00  0.94  0.00
  WS02004409WS02004410    1.00   0.05  0.00  0.00  0.95  0.00  0.00  0.00  0.03  0.00
  WS02004410WS02004411    1.00   0.05  0.00  0.00  0.95  0.00  0.00  0.00  0.01  0.00
  WS02004411WS02004412    1.00   0.05  0.00  0.00  0.95  0.00  0.00  0.00  0.00  0.00
  WS02004412WS02004413    1.00   0.05  0.00  0.00  0.94  0.00  0.00  0.00  0.01  0.00
  WS02004413WS02003067    1.00   0.06  0.04  0.00  0.00  0.00  0.90  0.00  0.00  0.00
  WS02006109WS02006110    1.00   0.00  0.01  0.00  0.98  0.00  0.01  0.00  0.00  0.00
  WS02006110WS02006113    1.00   0.01  0.01  0.00  0.98  0.00  0.00  0.00  0.00  0.00
  WS02006111WS02006112    1.00   0.02  0.00  0.00  0.98  0.00  0.00  0.00  0.98  0.00
  WS02006112WS02006115    1.00   0.02  0.00  0.00  0.97  0.00  0.00  0.00  0.00  0.00
  WS02006113WS02006111    1.00   0.02  0.00  0.00  0.00  0.98  0.00  0.00  0.07  0.00
  WS02006115WS02006116    1.00   0.02  0.00  0.00  0.97  0.00  0.00  0.01  0.00  0.00
  WS02006116WS02004401    1.00   0.02  0.00  0.00  0.98  0.00  0.00  0.00  0.00  0.00
  WS02006228WS02006109    1.00   0.00  0.00  0.00  1.00  0.00  0.00  0.00  0.00  0.00
  WS02006229WS02006228    1.00   0.00  0.00  0.00  0.99  0.00  0.00  0.01  0.00  0.00
  WS02006230WS02006229    1.00   0.00  0.00  0.00  0.99  0.00  0.00  0.01  0.00  0.00
  WS02006231WS02006230    1.00   0.00  0.00  0.00  0.16  0.00  0.83  0.00  0.00  0.00
  WS02006232WS02006231    1.00   0.00  0.00  0.00  0.99  0.00  0.01  0.00  0.00  0.00
  WS02006234WS02006232    1.00   0.00  0.00  0.00  1.00  0.00  0.00  0.00  0.39  0.00
  WS02006235WS02006234    1.00   0.00  0.00  0.00  0.57  0.00  0.43  0.00  0.00  0.00
  WS02006238WS02006235    1.00   0.00  0.00  0.00  1.00  0.00  0.00  0.00  0.00  0.00
  WS02006239WS02006238    1.00   0.00  0.00  0.00  1.00  0.00  0.00  0.00  0.52  0.00
  WS02006240WS02006239    1.00   0.00  0.00  0.00  0.42  0.00  0.00  0.58  0.02  0.00
  WS02006242WS02006240    1.00   0.00  0.00  0.00  1.00  0.00  0.00  0.00  0.00  0.00
  WS02006243WS02006242    1.00   0.00  0.00  0.00  0.99  0.00  0.00  0.01  0.76  0.00
  WS02006245WS02006243    1.00   0.00  0.00  0.00  0.45  0.00  0.00  0.55  0.01  0.00
  WS02006247WS02006245    1.00   0.00  0.00  0.00  0.98  0.00  0.00  0.02  0.00  0.00
  WS02006248WS02006247    1.00   0.00  0.00  0.00  0.99  0.00  0.00  0.01  0.24  0.00
  WS02006249WS02006248    1.00   0.00  0.00  0.00  0.29  0.00  0.71  0.00  0.00  0.00
  WS02006251WS02006249    1.00   0.00  0.00  0.00  0.99  0.01  0.00  0.00  0.75  0.00
  WS02006252WS02006251    1.00   0.00  0.77  0.00  0.12  0.00  0.11  0.00  0.00  0.00
  WS02006256WS02006235    1.00   0.00  0.00  0.00  0.99  0.01  0.00  0.00  0.00  0.00
  WSF200WS02003060        1.00   0.00  0.13  0.00  0.72  0.16  0.00  0.00  0.70  0.00
  YS02001580YS02001583    1.00   0.22  0.62  0.00  0.16  0.00  0.00  0.00  0.71  0.00
  YS02001583YS02001586    1.00   0.50  0.28  0.00  0.22  0.00  0.00  0.00  0.71  0.00
  YS02001586YS02001590    1.00   0.13  0.00  0.00  0.37  0.04  0.00  0.46  0.33  0.00
  YS02001590YS02001593    1.00   0.13  0.01  0.00  0.08  0.00  0.78  0.00  0.00  0.00
  YS02001593YS02001596    1.00   0.14  0.00  0.00  0.10  0.01  0.00  0.76  0.02  0.00
  YS02001596YS02001600    1.00   0.14  0.00  0.00  0.17  0.02  0.00  0.68  0.06  0.00
  YS02001600YS02001601    1.00   0.13  0.01  0.00  0.86  0.00  0.00  0.00  0.63  0.00
  YS02001601YS02001602    1.00   0.13  0.01  0.00  0.86  0.00  0.00  0.00  0.00  0.00
  YS02001602YS02001605    1.00   0.14  0.00  0.00  0.86  0.00  0.00  0.00  0.00  0.00
  YS02001605YS02001607    1.00   0.14  0.00  0.00  0.86  0.00  0.00  0.00  0.00  0.00
  YS02001607YS02001610    1.00   0.13  0.01  0.00  0.86  0.00  0.00  0.00  0.02  0.00
  YS02001610YS02001613    1.00   0.13  0.00  0.00  0.87  0.00  0.00  0.00  0.01  0.00
  YS02001613YS02001616    1.00   0.13  0.00  0.00  0.87  0.00  0.00  0.00  0.00  0.00
  YS02001616YS02001619    1.00   0.13  0.00  0.00  0.87  0.00  0.00  0.00  0.00  0.00
  YS02001619YS02001622    1.00   0.13  0.00  0.00  0.87  0.00  0.00  0.00  0.36  0.00
  YS02001622YS02001625    1.00   0.13  0.00  0.00  0.87  0.00  0.00  0.00  0.05  0.00
  YS02001625YS02001629    1.00   0.13  0.05  0.00  0.12  0.00  0.70  0.00  0.00  0.00
  YS02001629YS02163301    1.00   0.16  0.01  0.00  0.83  0.00  0.00  0.00  0.00  0.00
  YS02001633YS02163601    1.00   0.00  0.01  0.00  0.99  0.00  0.00  0.00  0.15  0.00
  YS02001641YS02001644    1.00   0.00  0.01  0.00  0.99  0.00  0.00  0.00  0.00  0.00
  YS02001644YS02001647    1.00   0.00  0.17  0.00  0.83  0.00  0.00  0.00  0.00  0.00
  YS02001647YS02001649    1.00   0.00  0.17  0.00  0.56  0.27  0.00  0.00  0.60  0.00
  YS02001649YS02001757    1.00   0.00  0.00  0.00  0.70  0.30  0.00  0.00  0.58  0.00
  YS02001652YS02001649    1.00   0.00  0.00  0.00  0.96  0.04  0.00  0.00  0.77  0.00
  YS02001655YS02001652    1.00   0.00  0.00  0.00  0.13  0.02  0.00  0.84  0.05  0.00
  YS02001658YS02001655    1.00   0.00  0.14  0.00  0.64  0.21  0.00  0.00  0.72  0.00
  YS02001661YS02001658    1.00   0.14  0.00  0.00  0.51  0.35  0.00  0.00  0.74  0.00
  YS02001664YS02001661    1.00   0.13  0.00  0.00  0.77  0.10  0.00  0.00  0.86  0.00
  YS02001745YS02001748    1.00   0.00  0.00  0.00  0.06  0.01  0.00  0.93  0.04  0.00
  YS02001748YS02001751    1.00   0.00  0.00  0.00  0.81  0.19  0.00  0.00  0.79  0.00
  YS02001751YS02001754    1.00   0.00  0.00  0.00  0.11  0.00  0.00  0.89  0.02  0.00
  YS02001754YS02001757    1.00   0.00  0.00  0.00  1.00  0.00  0.00  0.00  0.88  0.00
  YS02001757CaochengTiaoxuchi    1.00   0.00  0.00  0.00  1.00  0.00  0.00  0.00  0.87  0.00
  YS02001759YS02001757    1.00   0.00  0.00  0.00  1.00  0.00  0.00  0.00  0.64  0.00
  YS02001762YS02001759    1.00   0.00  0.00  0.00  1.00  0.00  0.00  0.00  0.04  0.00
  YS02001765YS02001762    1.00   0.00  0.00  0.00  1.00  0.00  0.00  0.00  0.76  0.00
  YS02001767YS02001765    1.00   0.00  0.00  0.00  1.00  0.00  0.00  0.00  0.01  0.00
  YS02001770YS02001767    1.00   0.00  0.00  0.00  1.00  0.00  0.00  0.00  0.00  0.00
  YS02001774YS02001770    1.00   0.00  0.13  0.00  0.60  0.00  0.27  0.00  0.03  0.00
  YS02001779YS02001774    1.00   0.00  0.00  0.00  1.00  0.00  0.00  0.00  0.81  0.00
  YS02001783YS02001784    1.00   0.00  0.18  0.00  0.82  0.00  0.00  0.00  0.58  0.00
  YS02001784YS02001785    1.00   0.00  0.00  0.00  1.00  0.00  0.00  0.00  0.17  0.00
  YS02001786YS02001788    1.00   0.00  0.00  0.00  0.80  0.20  0.00  0.00  0.00  0.00
  YS02001788YS02001790    1.00   0.00  0.00  0.00  0.20  0.80  0.00  0.00  0.85  0.00
  YS02001790YS02001791    1.00   0.00  0.00  0.00  0.01  0.99  0.00  0.00  0.16  0.00
  YS02001791YS02001793    1.00   0.00  0.00  0.00  0.00  1.00  0.00  0.00  0.01  0.00
  YS02001793JiankangQianchi    1.00   0.00  0.00  0.00  1.00  0.00  0.00  0.00  0.97  0.00
  YS02001882YS02001884    1.00   0.15  0.01  0.00  0.84  0.00  0.00  0.00  0.00  0.00
  YS02001884YS02001887    1.00   0.06  0.05  0.00  0.89  0.00  0.00  0.00  0.00  0.00
  YS02001887YS02001890    1.00   0.00  0.00  0.00  0.97  0.00  0.03  0.00  0.00  0.00
  YS02001890YS02001895    1.00   0.00  0.16  0.00  0.83  0.00  0.00  0.00  0.00  0.00
  YS02001895YS02001898    1.00   0.17  0.00  0.00  0.81  0.00  0.02  0.00  0.00  0.00
  YS02001898YS02001901    1.00   0.17  0.00  0.00  0.83  0.00  0.00  0.00  0.01  0.00
  YS02001901YS02001904    1.00   0.17  0.00  0.00  0.83  0.00  0.00  0.00  0.00  0.00
  YS02001904YS02001907    1.00   0.00  0.17  0.00  0.83  0.00  0.00  0.00  0.00  0.00
  YS02001907YS02006553    1.00   0.00  0.02  0.00  0.98  0.00  0.00  0.00  0.00  0.00
  YS02001910YS02001907    1.00   0.00  0.00  0.00  0.97  0.00  0.00  0.03  0.12  0.00
  YS02001915YS02001910    1.00   0.00  0.00  0.00  0.97  0.03  0.00  0.00  0.16  0.00
  YS02001918YS02001915    1.00   0.00  0.01  0.00  0.98  0.02  0.00  0.00  0.78  0.00
  YS02001920YS02001918    1.00   0.00  0.01  0.00  0.99  0.00  0.00  0.00  0.00  0.00
  YS02001923YS02001920    1.00   0.00  0.00  0.00  1.00  0.00  0.00  0.00  0.95  0.00
  YS02001926YS02001923    1.00   0.00  0.07  0.00  0.04  0.00  0.89  0.00  0.00  0.00
  YS02001929YS02001926    1.00   0.00  0.13  0.00  0.87  0.00  0.00  0.00  0.84  0.00
  YS02006553YS02006556    1.00   0.01  0.00  0.00  0.99  0.00  0.00  0.00  0.03  0.00
  YS02006556YS02006558    1.00   0.00  0.00  0.00  1.00  0.00  0.00  0.00  0.00  0.00
  YS02006558YS02006561    1.00   0.18  0.00  0.00  0.03  0.79  0.00  0.00  0.19  0.00
  YS02006561YS02001783    1.00   0.18  0.00  0.00  0.06  0.76  0.00  0.00  0.72  0.00
  YS02163301YS02001633    1.00   0.00  0.16  0.00  0.84  0.00  0.00  0.00  0.00  0.00
  YS02163601YS02164001    1.00   0.00  0.08  0.00  0.92  0.00  0.00  0.00  0.00  0.00
  YS02164001YS02001641    1.00   0.01  0.07  0.00  0.92  0.00  0.00  0.00  0.06  0.00
  
  
  *************************
  Conduit Surcharge Summary
  *************************
  
  ----------------------------------------------------------------------------
                                                           Hours        Hours 
                         --------- Hours Full --------   Above Full   Capacity
  Conduit                Both Ends  Upstream  Dnstream   Normal Flow   Limited
  ----------------------------------------------------------------------------
  WS02003072WS02003073        0.01      0.01      0.01      1.37         0.01
  WS02004404WS02004405        0.01      0.01      0.01      1.62         0.01
  WS02004405WS02004406        0.01      0.01      0.01      0.76         0.01
  WS02006109WS02006110        0.78      0.78      1.29      0.88         0.01
  WS02006110WS02006113        0.01      0.01      1.28      0.01         0.01
  WS02006111WS02006112        0.01      0.01      1.34      0.01         0.01
  WS02006112WS02006115        0.01      0.01      0.82      0.01         0.01
  WS02006228WS02006109        1.27      1.29      1.27      1.38         1.26
  WS02006229WS02006228        1.26      1.27      1.26      1.33         1.25
  WS02006230WS02006229        1.30      1.32      1.30      2.33         1.30
  WS02006231WS02006230        0.79      0.79      0.94      1.91         0.01
  WS02006232WS02006231        0.90      0.90      1.29      0.96         0.01
  WS02006234WS02006232        1.23      1.23      1.29      0.94         0.94
  WS02006235WS02006234        1.10      1.11      1.23      1.77         0.02
  WS02006238WS02006235        1.25      1.25      1.29      0.01         0.01
  WS02006239WS02006238        1.28      1.29      1.28      1.29         1.15
  WS02006240WS02006239        1.25      1.27      1.25      1.29         1.10
  WS02006242WS02006240        1.26      1.26      1.28      1.36         0.01
  WS02006243WS02006242        1.26      1.26      1.28      0.01         0.04
  WS02006245WS02006243        1.26      1.26      1.26      0.49         0.44
  WS02006247WS02006245        1.26      1.26      1.26      1.50         1.24
  WS02006248WS02006247        1.25      1.25      1.26      0.01         0.05
  WS02006249WS02006248        1.25      1.25      1.25      1.47         0.01
  WS02006251WS02006249        1.25      1.25      1.25      1.37         1.18
  WS02006252WS02006251        1.46      1.46      1.46      1.46         0.01
  WS02006256WS02006235        1.77      1.80      3.84      1.19         0.01
  YS02001580YS02001583        0.37      0.37      0.41      0.01         0.01
  YS02001583YS02001586        0.37      0.37      0.50      0.01         0.01
  YS02001586YS02001590        0.51      0.51      0.56      0.01         0.01
  YS02001590YS02001593        0.57      0.57      0.58      0.61         0.01
  YS02001593YS02001596        0.57      0.57      0.65      0.01         0.01
  YS02001596YS02001600        0.69      0.69      0.78      0.01         0.01
  YS02001600YS02001601        0.84      0.84      1.16      0.01         0.01
  YS02001601YS02001602        1.02      1.02      1.21      0.79         0.01
  YS02001602YS02001605        0.96      0.96      1.02      1.98         0.01
  YS02001605YS02001607        0.91      0.96      0.91      1.10         0.91
  YS02001607YS02001610        0.53      0.53      0.56      0.01         0.01
  YS02001610YS02001613        0.53      0.53      0.56      0.01         0.01
  YS02001613YS02001616        0.49      0.49      0.53      0.01         0.01
  YS02001616YS02001619        0.48      0.48      0.49      0.01         0.01
  YS02001619YS02001622        0.47      0.48      0.47      0.59         0.44
  YS02001622YS02001625        0.47      0.47      0.63      0.01         0.01
  YS02001625YS02001629        0.43      0.43      0.63      0.01         0.01
  YS02001629YS02163301        0.62      0.62      0.63      0.15         0.16
  YS02001633YS02163601        0.65      0.65      0.67      0.35         0.35
  YS02001641YS02001644        0.56      0.59      0.56      1.28         0.56
  YS02001644YS02001647        0.38      0.38      0.56      0.03         0.01
  YS02001647YS02001649        0.38      0.38      0.48      0.01         0.01
  YS02001649YS02001757        0.48      0.48      0.54      0.21         0.17
  YS02001652YS02001649        0.33      0.33      0.48      0.01         0.01
  YS02001655YS02001652        0.17      0.17      0.31      0.01         0.01
  YS02001658YS02001655        0.02      0.02      0.17      0.01         0.01
  YS02001661YS02001658        0.01      0.01      0.02      0.01         0.01
  YS02001748YS02001751        0.01      0.01      0.06      0.01         0.01
  YS02001751YS02001754        0.06      0.06      0.21      0.01         0.01
  YS02001754YS02001757        0.26      0.26      0.54      0.01         0.01
  YS02001757CaochengTiaoxuchi        0.52      0.54      1.01      0.23         0.19
  YS02001759YS02001757        0.44      0.44      0.54      0.01         0.01
  YS02001762YS02001759        0.41      0.41      0.44      0.01         0.01
  YS02001765YS02001762        0.37      0.37      0.41      0.01         0.01
  YS02001767YS02001765        0.34      0.34      0.37      0.01         0.01
  YS02001770YS02001767        0.34      0.34      0.34      0.34         0.24
  YS02001774YS02001770        0.31      0.31      0.40      0.01         0.01
  YS02001779YS02001774        0.21      0.21      0.40      0.01         0.01
  YS02001783YS02001784        0.32      0.34      0.32      0.45         0.32
  YS02001784YS02001785        0.23      0.32      0.23      0.64         0.23
  YS02001786YS02001788        0.01      0.23      0.01      0.53         0.01
  YS02001790YS02001791        0.01      0.01      0.01      0.31         0.01
  YS02001793JiankangQianchi        0.01      0.01      7.70      0.01         0.01
  YS02001882YS02001884        0.29      0.29      0.30      0.01         0.01
  YS02001884YS02001887        0.32      0.32      0.33      0.01         0.01
  YS02001887YS02001890        0.34      0.34      0.35      0.01         0.01
  YS02001890YS02001895        0.28      0.28      0.37      0.01         0.01
  YS02001895YS02001898        0.28      0.28      0.28      0.01         0.01
  YS02001898YS02001901        0.29      0.29      0.32      0.01         0.01
  YS02001901YS02001904        0.31      0.31      0.32      0.01         0.01
  YS02001904YS02001907        0.31      0.31      0.51      0.01         0.01
  YS02001907YS02006553        0.65      0.65      0.70      0.01         0.01
  YS02001910YS02001907        0.37      0.37      0.50      0.01         0.01
  YS02001915YS02001910        0.29      0.29      0.37      0.01         0.01
  YS02001918YS02001915        0.22      0.22      0.29      0.01         0.01
  YS02001920YS02001918        0.22      0.22      0.23      0.01         0.01
  YS02001923YS02001920        0.17      0.17      0.23      0.01         0.01
  YS02001926YS02001923        0.01      0.01      0.01      0.01         0.01
  YS02001929YS02001926        0.01      0.01      0.01      0.01         0.01
  YS02006553YS02006556        0.43      0.43      0.51      0.01         0.01
  YS02006556YS02006558        0.47      0.47      0.52      0.01         0.01
  YS02006558YS02006561        0.25      0.42      0.25      0.60         0.25
  YS02006561YS02001783        0.18      0.18      0.34      0.01         0.01
  YS02163301YS02001633        0.63      0.63      0.66      0.01         0.01
  YS02163601YS02164001        0.60      0.60      0.67      0.05         0.01
  YS02164001YS02001641        0.59      0.60      0.59      0.66         0.55
  
  
  ***************
  Pumping Summary
  ***************
  
  ---------------------------------------------------------------------------------------------------------
                                                  Min       Avg       Max     Total     Power    % Time Off
                        Percent   Number of      Flow      Flow      Flow    Volume     Usage    Pump Curve
  Pump                 Utilized   Start-Ups       LPS       LPS       LPS  10^6 ltr     Kw-hr    Low   High
  ---------------------------------------------------------------------------------------------------------
  CC-R1                   17.51          15      0.00    683.00    683.00     3.444     62.35    0.0   32.5
  CC-R2                   16.31          15      0.00    683.00    683.00     3.208     57.96    0.0   34.8
  CC-S1                   19.39          15      0.00    200.00    200.00     1.117      6.80    0.0    0.0
  CC-S2                   18.26          15      0.00    200.00    200.00     1.052      6.41    0.0    0.0
  JK-R1                    5.71          10      0.00   1000.00   1000.00     1.645     19.68    0.0    0.0
  JK-R2                    0.16           1      0.00   1000.00   1000.00     0.047      0.36    0.0    0.0
  JK-S                    14.78          14      0.00    300.00    300.00     1.277     17.99    0.0    0.0
  XR-1                    97.91           2      0.00     95.00     95.00     2.679      9.60    0.0    0.0
  XR-2                    93.94           2      0.00     95.00     95.00     2.570      8.76    0.0    0.0
  XR-3                     0.00           1      0.00     95.00     95.00     0.000      0.00    0.0    0.0
  XR-4                     0.00           1      0.00     95.00     95.00     0.000      0.00    0.0    0.0
  

  Analysis begun on:  Wed Nov  5 16:31:23 2025
  Analysis ended on:  Wed Nov  5 16:31:26 2025
  Total elapsed time: 00:00:03