
  EPA STORM WATER MANAGEMENT MODEL - VERSION 5.2 (Build 5.2.4)
  PYSWMM TOOLKIT API - VERSION v1.0 (2023-11-27)
  ------------------------------------------------------------

  WARNING 04: minimum elevation drop used for Conduit WS02004404WS02004405
  WARNING 03: negative offset ignored for Link YS02001904YS02001907
  
  ****************
  Analysis Options
  ****************
  Flow Units ............... LPS
  Process Models:
    Rainfall/Runoff ........ YES
    RDII ................... NO
    Snowmelt ............... NO
    Groundwater ............ NO
    Flow Routing ........... YES
    Ponding Allowed ........ NO
    Water Quality .......... NO
  Infiltration Method ...... HORTON
  Flow Routing Method ...... DYNWAVE
  Surcharge Method ......... EXTRAN
  Starting Date ............ 08/28/2015 08:00:00
  Ending Date .............. 08/28/2015 16:00:00
  Antecedent Dry Days ...... 8.0
  Report Time Step ......... 00:01:00
  Wet Time Step ............ 00:01:00
  Dry Time Step ............ 00:01:00
  Routing Time Step ........ 30.00 sec
  Variable Time Step ....... YES
  Maximum Trials ........... 8
  Number of Threads ........ 4
  Head Tolerance ........... 0.001500 m
  
  
  **************************        Volume         Depth
  Runoff Quantity Continuity     hectare-m            mm
  **************************     ---------       -------
  Initial LID Storage ......         0.049         1.488
  Total Precipitation ......         1.726        52.037
  Evaporation Loss .........         0.000         0.000
  Infiltration Loss ........         0.075         2.266
  Surface Runoff ...........         1.262        38.037
  Final Storage ............         0.439        13.247
  Continuity Error (%) .....        -0.047
  
  
  **************************        Volume        Volume
  Flow Routing Continuity        hectare-m      10^6 ltr
  **************************     ---------     ---------
  Dry Weather Inflow .......         0.602         6.020
  Wet Weather Inflow .......         1.262        12.617
  Groundwater Inflow .......         0.000         0.000
  RDII Inflow ..............         0.000         0.000
  External Inflow ..........         0.105         1.045
  External Outflow .........         1.710        17.101
  Flooding Loss ............         0.234         2.340
  Evaporation Loss .........         0.000         0.000
  Exfiltration Loss ........         0.000         0.000
  Initial Stored Volume ....         0.303         3.031
  Final Stored Volume ......         0.333         3.330
  Continuity Error (%) .....        -0.252
  
  
  *************************
  Highest Continuity Errors
  *************************
  Node YS02001583 (-9.24%)
  Node YS02001884 (4.99%)
  Node YS02001774 (1.98%)
  
  
  ***************************
  Time-Step Critical Elements
  ***************************
  Link WS02004404WS02004405 (44.10%)
  Link WS02006238WS02006235 (19.40%)
  Link WS02006252WS02006251 (10.17%)
  Link YS02001791YS02001793 (8.80%)
  Link WS02003066WSF200 (2.99%)
  
  
  ********************************
  Highest Flow Instability Indexes
  ********************************
  Link WS02006113WS02006111 (27)
  Link WS02006252WS02006251 (17)
  Link WS02006111WS02006112 (16)
  Link WS02006238WS02006235 (15)
  Link YS02006558YS02006561 (14)
  
  
  *********************************
  Most Frequent Nonconverging Nodes
  *********************************
  Node CC-1 (15.36%)
  Node CC-2 (15.36%)
  Node JK-1 (15.36%)
  Node JK-2 (15.36%)
  Node WSC (15.36%)
  
  
  *************************
  Routing Time Step Summary
  *************************
  Minimum Time Step           :     0.01 sec
  Average Time Step           :     3.58 sec
  Maximum Time Step           :     7.04 sec
  % of Time in Steady State   :     0.00
  Average Iterations per Step :     3.30
  % of Steps Not Converging   :    15.36
  Time Step Frequencies       :
     30.000 - 13.228 sec      :     0.00 %
     13.228 -  5.833 sec      :    30.58 %
      5.833 -  2.572 sec      :    24.57 %
      2.572 -  1.134 sec      :    27.56 %
      1.134 -  0.500 sec      :    17.29 %
  
  
  ***************************
  Subcatchment Runoff Summary
  ***************************
  
  ------------------------------------------------------------------------------------------------------------------------------
                            Total      Total      Total      Total     Imperv       Perv      Total       Total     Peak  Runoff
                           Precip      Runon       Evap      Infil     Runoff     Runoff     Runoff      Runoff   Runoff   Coeff
  Subcatchment                 mm         mm         mm         mm         mm         mm         mm    10^6 ltr      LPS
  ------------------------------------------------------------------------------------------------------------------------------
  sub60                     52.04       0.00       0.00       1.36      34.42       3.46      37.88        0.50   338.03   0.728
  sub61                     52.04       0.00       0.00       2.09      34.38       5.15      39.53        0.73   491.90   0.760
  sub62                     52.04       0.00       0.00       0.92      36.65       2.35      39.00        1.07   674.15   0.750
  sub63                     52.04       0.00       0.00       3.81      29.45       8.55      38.00        0.86   550.75   0.730
  sub64                     52.04       0.00       0.00       1.83      33.53       4.25      37.78        0.91   542.97   0.726
  sub65                     52.04       0.00       0.00       1.68      36.19       3.88      40.07        1.10   632.00   0.770
  sub66                     52.04       0.00       0.00       4.42      28.47       7.55      36.02        1.68   801.33   0.692
  sub67                     52.04       0.00       0.00       0.92      37.58       2.44      40.02        0.74   529.15   0.769
  sub68                     52.04       0.00       0.00       1.60      33.19       3.95      37.14        1.02   671.88   0.714
  sub69                     52.04       0.00       0.00       1.45      34.97       4.74      39.71        1.47   819.63   0.763
  sub70                     52.04       0.00       0.00       4.83      28.01       9.65      37.66        1.09   463.97   0.724
  sub71                     52.04       0.00       0.00       0.85      33.29       2.12      35.42        0.93   551.50   0.681
  sub72                     52.04       0.00       0.00       0.81      35.96       1.97      37.93        0.52   282.33   0.729
  

  ***********************
  LID Performance Summary
  ***********************

  --------------------------------------------------------------------------------------------------------------------
                                         Total      Evap     Infil   Surface    Drain    Initial     Final  Continuity
                                        Inflow      Loss      Loss   Outflow   Outflow   Storage   Storage       Error
  Subcatchment      LID Control             mm        mm        mm        mm        mm        mm        mm           %
  --------------------------------------------------------------------------------------------------------------------
  sub60             GreenRoof            52.04      0.00      0.00      0.00      0.00      7.05     59.16       -0.13
  sub61             GreenRoof            52.04      0.00      0.00      0.00      0.00      7.05     59.16       -0.13
  sub62             GreenRoof            52.04      0.00      0.00      0.00      0.00      7.05     59.16       -0.13
  sub63             GreenRoof            52.04      0.00      0.00      0.00      0.00      7.05     59.16       -0.13
  sub64             GreenRoof            52.04      0.00      0.00      0.00      0.00      7.05     59.16       -0.13
  sub65             GreenRoof            52.04      0.00      0.00      0.00      0.00      7.05     59.16       -0.13
  sub66             GreenRoof            52.04      0.00      0.00      0.00      0.00      7.05     59.16       -0.13
  sub67             GreenRoof            52.04      0.00      0.00      0.00      0.00      7.05     59.16       -0.13
  sub68             GreenRoof            52.04      0.00      0.00      0.00      0.00      7.05     59.16       -0.13
  sub69             GreenRoof            52.04      0.00      0.00      0.00      0.00      7.05     59.16       -0.13
  sub70             GreenRoof            52.04      0.00      0.00      0.00      0.00      7.05     59.16       -0.13
  sub71             GreenRoof            52.04      0.00      0.00      0.00      0.00      7.05     59.16       -0.13
  sub72             GreenRoof            52.04      0.00      0.00      0.00      0.00      7.05     59.16       -0.13
  
  ******************
  Node Depth Summary
  ******************
  
  ---------------------------------------------------------------------------------
                                 Average  Maximum  Maximum  Time of Max    Reported
                                   Depth    Depth      HGL   Occurrence   Max Depth
  Node                 Type       Meters   Meters   Meters  days hr:min      Meters
  ---------------------------------------------------------------------------------
  WS02001211           JUNCTION     0.60     0.64     5.48     0  03:15        0.64
  WS02001212           JUNCTION     0.33     0.38     5.45     0  03:15        0.38
  WS02001213           JUNCTION     0.53     0.65     5.41     0  03:14        0.65
  WS02003059           JUNCTION     0.59     0.72     5.40     0  03:14        0.72
  WS02003060           JUNCTION     0.30     0.45     5.38     0  03:13        0.45
  WS02003066           JUNCTION     0.15     0.30     5.85     0  02:52        0.30
  WS02003067           JUNCTION     0.42     0.70     6.02     0  02:51        0.70
  WS02003069           JUNCTION     0.33     0.51     5.10     0  03:14        0.51
  WS02003072           JUNCTION     0.40     0.58     4.95     0  03:14        0.58
  WS02003073           JUNCTION     0.23     0.35     4.41     0  03:14        0.35
  WS02004138           JUNCTION     0.13     0.14     7.39     0  00:29        0.14
  WS02004139           JUNCTION     0.54     0.58     5.49     0  03:16        0.58
  WS02004401           JUNCTION     0.51     0.85     6.85     0  02:49        0.85
  WS02004402           JUNCTION     0.54     0.88     6.84     0  02:49        0.88
  WS02004403           JUNCTION     0.57     0.89     6.82     0  02:49        0.89
  WS02004404           JUNCTION     0.64     0.96     6.81     0  02:49        0.96
  WS02004405           JUNCTION     0.64     0.96     6.81     0  02:50        0.96
  WS02004406           JUNCTION     0.65     0.96     6.79     0  02:50        0.96
  WS02004407           JUNCTION     0.13     0.30     6.61     0  02:50        0.30
  WS02004409           JUNCTION     0.30     0.67     6.44     0  02:50        0.67
  WS02004410           JUNCTION     0.33     0.68     6.40     0  02:50        0.68
  WS02004411           JUNCTION     0.35     0.69     6.37     0  02:51        0.69
  WS02004412           JUNCTION     0.38     0.70     6.34     0  02:51        0.70
  WS02004413           JUNCTION     0.53     0.86     6.33     0  02:51        0.86
  WS02006109           JUNCTION     0.57     1.41     8.03     0  02:16        1.05
  WS02006110           JUNCTION     0.57     1.57     8.15     0  02:16        0.99
  WS02006111           JUNCTION     0.14     0.29     6.99     0  02:48        0.29
  WS02006112           JUNCTION     0.66     1.08     6.97     0  02:22        1.06
  WS02006113           JUNCTION     0.21     0.46     7.35     0  02:30        0.46
  WS02006115           JUNCTION     0.39     0.75     6.89     0  02:49        0.75
  WS02006116           JUNCTION     0.48     0.83     6.87     0  02:49        0.83
  WS02006228           JUNCTION     0.56     1.36     8.01     0  02:28        1.10
  WS02006229           JUNCTION     0.53     1.43     8.12     0  02:28        1.12
  WS02006230           JUNCTION     0.53     1.72     8.46     0  02:28        1.25
  WS02006231           JUNCTION     0.34     1.41     8.53     0  02:28        1.01
  WS02006232           JUNCTION     0.47     1.43     8.47     0  02:28        1.21
  WS02006234           JUNCTION     0.39     1.57     8.73     0  02:10        1.23
  WS02006235           JUNCTION     0.44     1.51     8.67     0  02:02        1.51
  WS02006238           JUNCTION     0.46     1.68     8.82     0  02:02        1.68
  WS02006239           JUNCTION     0.42     2.03     9.24     0  02:02        2.03
  WS02006240           JUNCTION     0.40     2.08     9.37     0  02:02        2.08
  WS02006242           JUNCTION     0.46     1.55     8.82     0  02:02        1.55
  WS02006243           JUNCTION     0.39     1.48     8.90     0  02:02        1.48
  WS02006245           JUNCTION     0.39     1.56     9.04     0  02:02        1.56
  WS02006247           JUNCTION     0.41     1.47     8.97     0  02:02        1.47
  WS02006248           JUNCTION     0.38     1.10     8.69     0  02:02        1.10
  WS02006249           JUNCTION     0.40     1.09     8.69     0  02:02        1.09
  WS02006251           JUNCTION     0.40     1.44     9.11     0  02:16        1.44
  WS02006252           JUNCTION     0.27     1.50     9.74     0  00:00        1.02
  WS02006256           JUNCTION     1.03     2.35     9.28     0  00:00        2.35
  WSF200               JUNCTION     0.13     0.31     5.54     0  02:53        0.31
  YS02001580           JUNCTION     0.10     1.05     9.59     0  01:58        0.76
  YS02001583           JUNCTION     0.13     1.14     9.64     0  01:58        0.82
  YS02001586           JUNCTION     0.22     1.13     9.30     0  01:57        1.13
  YS02001590           JUNCTION     0.33     1.40     9.26     0  01:56        1.37
  YS02001593           JUNCTION     0.26     1.35     9.22     0  01:56        1.28
  YS02001596           JUNCTION     0.37     1.69     9.11     0  01:58        1.65
  YS02001600           JUNCTION     0.47     1.87     9.00     0  01:57        1.87
  YS02001601           JUNCTION     0.66     2.06     8.90     0  01:56        2.06
  YS02001602           JUNCTION     0.56     1.87     8.77     0  01:57        1.87
  YS02001605           JUNCTION     0.52     1.78     8.68     0  01:57        1.78
  YS02001607           JUNCTION     0.49     1.68     8.53     0  01:57        1.65
  YS02001610           JUNCTION     0.53     1.68     8.48     0  01:57        1.68
  YS02001613           JUNCTION     0.49     1.70     8.54     0  01:57        1.68
  YS02001616           JUNCTION     0.42     1.61     8.52     0  01:57        1.61
  YS02001619           JUNCTION     0.40     1.61     8.54     0  01:57        1.61
  YS02001622           JUNCTION     0.38     1.62     8.52     0  01:57        1.59
  YS02001625           JUNCTION     0.64     1.78     8.38     0  01:57        1.78
  YS02001629           JUNCTION     0.52     1.85     8.40     0  01:57        1.85
  YS02001633           JUNCTION     0.59     2.08     8.53     0  02:02        2.08
  YS02001641           JUNCTION     0.56     2.02     8.46     0  02:02        2.02
  YS02001644           JUNCTION     0.55     1.92     8.35     0  02:01        1.92
  YS02001647           JUNCTION     0.33     1.75     8.36     0  02:01        1.67
  YS02001649           JUNCTION     0.38     1.94     8.33     0  02:01        1.82
  YS02001652           JUNCTION     0.26     1.83     8.43     0  02:01        1.63
  YS02001655           JUNCTION     0.19     1.79     8.64     0  02:01        1.40
  YS02001658           JUNCTION     0.13     1.75     8.90     0  02:01        1.23
  YS02001661           JUNCTION     0.15     1.13     8.54     0  02:02        0.97
  YS02001664           JUNCTION     0.07     0.54     8.46     0  02:02        0.44
  YS02001745           JUNCTION     0.07     0.80     8.32     0  02:01        0.71
  YS02001748           JUNCTION     0.12     1.80     8.88     0  02:01        1.14
  YS02001751           JUNCTION     0.16     1.74     8.62     0  02:01        1.24
  YS02001754           JUNCTION     0.22     1.76     8.37     0  02:01        1.48
  YS02001757           JUNCTION     0.39     2.00     8.26     0  02:01        1.82
  YS02001759           JUNCTION     0.33     1.94     8.30     0  02:01        1.81
  YS02001762           JUNCTION     0.32     1.96     8.36     0  02:02        1.90
  YS02001765           JUNCTION     0.30     1.95     8.40     0  02:02        1.94
  YS02001767           JUNCTION     0.30     1.96     8.45     0  02:00        1.95
  YS02001770           JUNCTION     0.31     1.95     8.44     0  02:02        1.95
  YS02001774           JUNCTION     0.37     2.01     8.43     0  02:02        1.95
  YS02001779           JUNCTION     0.20     1.68     8.37     0  02:00        1.68
  YS02001783           JUNCTION     0.28     1.41     7.55     0  02:00        1.26
  YS02001784           JUNCTION     0.29     1.24     7.31     0  02:00        1.15
  YS02001786           JUNCTION     0.25     0.98     7.01     0  02:00        0.89
  YS02001788           JUNCTION     0.18     0.62     6.60     0  02:01        0.62
  YS02001790           JUNCTION     0.21     0.72     6.37     0  02:01        0.70
  YS02001791           JUNCTION     0.14     0.43     5.90     0  02:09        0.42
  YS02001793           JUNCTION     0.07     0.29     5.13     0  02:02        0.29
  YS02001882           JUNCTION     0.34     1.83     8.55     0  01:59        1.64
  YS02001884           JUNCTION     0.42     1.93     8.55     0  01:59        1.73
  YS02001887           JUNCTION     0.50     1.93     8.47     0  01:59        1.81
  YS02001890           JUNCTION     0.53     1.81     8.32     0  01:59        1.81
  YS02001895           JUNCTION     0.31     1.59     8.33     0  02:02        1.59
  YS02001898           JUNCTION     0.32     1.58     8.32     0  01:59        1.58
  YS02001901           JUNCTION     0.42     1.69     8.30     0  02:00        1.67
  YS02001904           JUNCTION     0.41     1.64     8.27     0  02:00        1.63
  YS02001907           JUNCTION     0.72     1.96     8.25     0  02:00        1.96
  YS02001910           JUNCTION     0.52     1.99     8.50     0  02:01        1.79
  YS02001915           JUNCTION     0.34     1.93     8.65     0  02:01        1.62
  YS02001918           JUNCTION     0.17     1.81     8.88     0  02:01        1.29
  YS02001920           JUNCTION     0.25     2.14     9.15     0  02:01        1.41
  YS02001923           JUNCTION     0.12     2.03     9.29     0  02:01        1.20
  YS02001926           JUNCTION     0.17     1.90     9.35     0  02:01        1.01
  YS02001929           JUNCTION     0.09     1.78     9.47     0  02:01        0.77
  YS02006553           JUNCTION     0.72     2.01     8.30     0  02:00        1.98
  YS02006556           JUNCTION     0.69     2.04     8.35     0  02:00        1.96
  YS02006558           JUNCTION     0.73     2.09     8.36     0  02:00        2.01
  YS02006561           JUNCTION     0.17     1.16     7.82     0  02:00        0.92
  YS02163301           JUNCTION     0.54     1.96     8.48     0  02:02        1.96
  YS02163601           JUNCTION     0.63     2.08     8.48     0  02:02        2.08
  YS02164001           JUNCTION     0.55     2.05     8.51     0  02:02        2.05
  CC-1                 OUTFALL      0.00     0.00     0.00     0  00:00        0.00
  CC-2                 OUTFALL      0.00     0.00     0.00     0  00:00        0.00
  JK-1                 OUTFALL      0.00     0.00     0.00     0  00:00        0.00
  JK-2                 OUTFALL      0.00     0.00     0.00     0  00:00        0.00
  WSC                  OUTFALL      0.23     0.35     1.02     0  03:15        0.35
  CC-storage           STORAGE      0.81     1.53     7.03     0  02:21        1.53
  JK-storage           STORAGE      2.64     4.24     5.04     0  02:01        4.23
  XR-storage           STORAGE      7.81     9.26     7.26     0  08:00        9.26
  
  
  *******************
  Node Inflow Summary
  *******************
  
  -------------------------------------------------------------------------------------------------
                                  Maximum  Maximum                  Lateral       Total        Flow
                                  Lateral    Total  Time of Max      Inflow      Inflow     Balance
                                   Inflow   Inflow   Occurrence      Volume      Volume       Error
  Node                 Type           LPS      LPS  days hr:min    10^6 ltr    10^6 ltr     Percent
  -------------------------------------------------------------------------------------------------
  WS02001211           JUNCTION      7.35   200.53     0  03:25       0.212        5.44       0.611
  WS02001212           JUNCTION      0.00   202.71     0  03:31           0        5.41       0.290
  WS02001213           JUNCTION      0.00   204.74     0  03:30           0        5.39       0.331
  WS02003059           JUNCTION      0.00   211.04     0  03:29           0        5.38       0.591
  WS02003060           JUNCTION     16.53   750.36     0  03:13       0.476        8.86       0.158
  WS02003066           JUNCTION      0.00   536.29     0  02:52           0        3.03       0.039
  WS02003067           JUNCTION      0.00   536.27     0  02:51           0        3.03       0.132
  WS02003069           JUNCTION      0.32   750.67     0  03:13     0.00922        8.84       0.167
  WS02003072           JUNCTION      0.00   750.67     0  03:14           0        8.83       0.229
  WS02003073           JUNCTION      1.82   752.50     0  03:14      0.0524        8.86       0.235
  WS02004138           JUNCTION      0.00   380.00     0  00:00           0        5.25       0.053
  WS02004139           JUNCTION      0.32   191.16     0  00:29     0.00924        5.26       0.509
  WS02004401           JUNCTION      0.00   539.34     0  02:38           0        3.13       0.315
  WS02004402           JUNCTION      0.00   538.22     0  02:49           0        3.12       0.322
  WS02004403           JUNCTION      0.00   537.71     0  02:49           0        3.11       0.315
  WS02004404           JUNCTION      0.16   537.75     0  02:49     0.00467        3.11       0.272
  WS02004405           JUNCTION      0.04   537.59     0  02:49      0.0011         3.1       0.387
  WS02004406           JUNCTION      0.00   537.72     0  02:50           0        3.09       0.659
  WS02004407           JUNCTION      0.00   537.28     0  02:50           0        3.07       0.030
  WS02004409           JUNCTION      0.00   537.06     0  02:50           0        3.07       0.073
  WS02004410           JUNCTION      0.00   536.76     0  02:50           0        3.06       0.126
  WS02004411           JUNCTION      0.00   536.58     0  02:51           0        3.06       0.166
  WS02004412           JUNCTION      0.00   536.51     0  02:51           0        3.05       0.228
  WS02004413           JUNCTION      0.00   536.40     0  02:51           0        3.05       0.411
  WS02006109           JUNCTION      1.23   562.78     0  02:28      0.0354        3.18       0.249
  WS02006110           JUNCTION      0.00   563.04     0  02:28           0        3.17       0.197
  WS02006111           JUNCTION      0.00   562.22     0  02:30           0        3.16       0.026
  WS02006112           JUNCTION      0.00   543.72     0  02:48           0        3.16       0.549
  WS02006113           JUNCTION      0.00   568.31     0  02:22           0        3.16       0.044
  WS02006115           JUNCTION      0.00   553.55     0  02:34           0        3.14       0.196
  WS02006116           JUNCTION      0.00   539.86     0  02:49           0        3.14       0.174
  WS02006228           JUNCTION      0.00   560.67     0  02:28           0        3.14       0.123
  WS02006229           JUNCTION      0.00   560.16     0  02:28           0        3.15       0.117
  WS02006230           JUNCTION     10.28   596.35     0  02:16       0.296        3.15       0.132
  WS02006231           JUNCTION      0.00   580.32     0  02:36           0        2.85      -0.070
  WS02006232           JUNCTION      0.00   579.59     0  02:36           0        2.86       0.249
  WS02006234           JUNCTION      0.00   575.03     0  02:36           0        2.86      -0.194
  WS02006235           JUNCTION      0.00   567.39     0  02:36           0        2.89       0.159
  WS02006238           JUNCTION      0.00   423.68     0  02:30           0        2.01      -0.191
  WS02006239           JUNCTION      0.00   422.75     0  02:25           0        1.99      -0.076
  WS02006240           JUNCTION      0.00   421.60     0  03:17           0        1.97      -0.070
  WS02006242           JUNCTION      0.00   421.61     0  03:17           0        1.95      -0.184
  WS02006243           JUNCTION      0.00   421.81     0  03:17           0        1.95      -0.187
  WS02006245           JUNCTION      0.00   420.65     0  03:17           0        1.96       0.545
  WS02006247           JUNCTION      0.00   419.32     0  03:17           0        1.96      -0.018
  WS02006248           JUNCTION      0.00   420.41     0  03:17           0        1.95      -0.174
  WS02006249           JUNCTION      0.00   458.97     0  00:00           0        2.22       0.691
  WS02006251           JUNCTION      0.08   408.99     0  02:16     0.00222        2.22       0.040
  WS02006252           JUNCTION      0.00   400.00     0  00:00           0        2.21      -0.453
  WS02006256           JUNCTION      0.00   300.00     0  00:00           0        1.33      -0.730
  WSF200               JUNCTION      0.00   536.32     0  02:52           0        3.03       0.015
  YS02001580           JUNCTION      0.00   129.65     0  01:57           0     0.00417      -1.001
  YS02001583           JUNCTION      0.00   214.81     0  01:58           0      0.0147      -8.460
  YS02001586           JUNCTION    463.97   463.97     0  02:04        1.09         1.1       0.127
  YS02001590           JUNCTION      0.00   317.92     0  02:13           0           1      -0.034
  YS02001593           JUNCTION      0.00   318.05     0  02:06           0        1.01       0.010
  YS02001596           JUNCTION      0.00   317.95     0  02:08           0           1      -0.003
  YS02001600           JUNCTION      0.00   318.04     0  02:10           0           1       0.012
  YS02001601           JUNCTION    819.63  1137.36     0  02:03        1.47        2.47       0.026
  YS02001602           JUNCTION      0.00   532.24     0  01:57           0        1.85       0.015
  YS02001605           JUNCTION      0.00   532.18     0  01:57           0        1.78       0.015
  YS02001607           JUNCTION      0.00   532.17     0  01:57           0        1.78       0.104
  YS02001610           JUNCTION      0.00   542.31     0  01:57           0        1.78       0.123
  YS02001613           JUNCTION      0.00   548.78     0  01:57           0        1.59       0.097
  YS02001616           JUNCTION      0.00   545.22     0  01:57           0        1.59       0.021
  YS02001619           JUNCTION    801.33   946.42     0  01:57        1.68        3.27      -0.005
  YS02001622           JUNCTION      0.00   939.63     0  01:59           0        3.27      -0.005
  YS02001625           JUNCTION      0.00   948.00     0  01:57           0        3.27       0.268
  YS02001629           JUNCTION      0.00   948.01     0  01:57           0        2.89       0.014
  YS02001633           JUNCTION    632.20  1425.95     0  01:59        1.11        3.99       0.084
  YS02001641           JUNCTION      0.00  1421.06     0  01:59           0        3.99       0.071
  YS02001644           JUNCTION    543.00  1848.63     0  01:59       0.909        4.89       0.066
  YS02001647           JUNCTION      0.00  1847.59     0  01:59           0        4.86       0.010
  YS02001649           JUNCTION      0.00  2054.47     0  01:59           0        5.73       0.005
  YS02001652           JUNCTION      0.00   668.59     0  02:02           0       0.868      -0.107
  YS02001655           JUNCTION      0.15   666.89     0  02:02     0.00443       0.868       0.032
  YS02001658           JUNCTION      0.00   670.58     0  02:01           0       0.863      -0.067
  YS02001661           JUNCTION      0.00   766.72     0  02:03           0       0.863      -0.007
  YS02001664           JUNCTION    550.75   550.75     0  02:02       0.863       0.863      -0.015
  YS02001745           JUNCTION    338.03   499.47     0  02:01       0.498       0.499       0.287
  YS02001748           JUNCTION      0.04   643.45     0  02:01      0.0013       0.501      -0.350
  YS02001751           JUNCTION      0.01   416.66     0  02:02    0.000317        0.51       0.095
  YS02001754           JUNCTION      0.26   416.16     0  02:02     0.00749       0.528      -0.235
  YS02001757           JUNCTION      0.00  3159.40     0  02:02           0        8.06       0.028
  YS02001759           JUNCTION    491.94  1183.82     0  02:01       0.727        1.81      -0.007
  YS02001762           JUNCTION      0.00   692.07     0  02:01           0        1.09       0.012
  YS02001765           JUNCTION      0.00   685.79     0  02:01           0        1.08       0.034
  YS02001767           JUNCTION      0.54   683.58     0  02:01      0.0154        1.08       0.037
  YS02001770           JUNCTION    674.30   674.89     0  02:01        1.07        1.11      -0.047
  YS02001774           JUNCTION      0.00   492.37     0  02:00           0      0.0648       2.019
  YS02001779           JUNCTION      0.01   496.05     0  02:00    0.000144      0.0225      -1.702
  YS02001783           JUNCTION      0.00  1151.01     0  02:01           0        2.99       0.005
  YS02001784           JUNCTION      1.06  1152.27     0  02:01      0.0305        3.02       0.018
  YS02001786           JUNCTION      0.06  1152.23     0  02:01     0.00162        3.02       0.022
  YS02001788           JUNCTION      0.07  1157.38     0  02:00     0.00204        3.02       0.010
  YS02001790           JUNCTION      0.15  1164.06     0  02:01     0.00446        3.03       0.019
  YS02001791           JUNCTION      0.00  1274.57     0  02:01           0        3.03      -0.014
  YS02001793           JUNCTION      0.00  1233.20     0  02:04           0        3.03       0.006
  YS02001882           JUNCTION      0.00    65.26     0  01:59           0      0.0123       5.972
  YS02001884           JUNCTION      0.00    88.59     0  01:58           0      0.0478       5.247
  YS02001887           JUNCTION    529.60   531.81     0  02:01       0.757        0.79       0.560
  YS02001890           JUNCTION      0.00   532.59     0  02:01           0        0.75       0.682
  YS02001895           JUNCTION      0.00   509.74     0  02:02           0       0.742       0.191
  YS02001898           JUNCTION      0.00   508.83     0  02:02           0        0.74       0.021
  YS02001901           JUNCTION      0.00   515.94     0  01:59           0       0.743       0.437
  YS02001904           JUNCTION      0.00   519.24     0  01:59           0       0.747       0.361
  YS02001907           JUNCTION      0.00  1517.29     0  02:02           0        2.27       0.786
  YS02001910           JUNCTION      0.00  1011.05     0  02:02           0        1.53       0.476
  YS02001915           JUNCTION    551.52  1010.26     0  02:02       0.927        1.57       0.094
  YS02001918           JUNCTION      0.00   485.01     0  02:00           0       0.681       0.015
  YS02001920           JUNCTION      2.87   465.93     0  02:01      0.0827       0.661       0.107
  YS02001923           JUNCTION      0.04   580.74     0  02:00     0.00109       0.561      -0.113
  YS02001926           JUNCTION      0.05   792.37     0  02:00      0.0015       0.541      -0.323
  YS02001929           JUNCTION    282.33   693.09     0  02:01       0.522       0.526      -0.130
  YS02006553           JUNCTION      0.00   793.14     0  02:11           0        1.99       0.596
  YS02006556           JUNCTION      0.00   793.23     0  02:11           0           2       0.393
  YS02006558           JUNCTION    672.76  1176.43     0  02:00        1.05        3.02       0.113
  YS02006561           JUNCTION      0.00  1175.75     0  02:00           0        2.99       0.001
  YS02163301           JUNCTION      0.00   936.51     0  01:59           0        2.88       0.052
  YS02163601           JUNCTION      0.11  1425.24     0  01:59     0.00317        3.98       0.124
  YS02164001           JUNCTION      0.00  1423.32     0  01:59           0        3.98       0.057
  CC-1                 OUTFALL       0.00   683.00     0  00:00           0        3.41       0.000
  CC-2                 OUTFALL       0.00   683.00     0  00:00           0         3.2       0.000
  JK-1                 OUTFALL       0.00  1000.00     0  00:00           0        1.61       0.000
  JK-2                 OUTFALL       0.00  1000.00     0  00:00           0      0.0484       0.000
  WSC                  OUTFALL       0.00   752.50     0  03:15           0        8.84       0.000
  CC-storage           STORAGE       0.00  3160.47     0  02:02           0        10.3      -0.246
  JK-storage           STORAGE       0.00  1209.36     0  02:10           0        3.18       0.202
  XR-storage           STORAGE     200.00   200.00     0  00:00        5.76        6.36       0.001
  
  
  **********************
  Node Surcharge Summary
  **********************
  
  Surcharging occurs when water rises above the top of the highest conduit.
  ---------------------------------------------------------------------
                                               Max. Height   Min. Depth
                                   Hours       Above Crown    Below Rim
  Node                 Type      Surcharged         Meters       Meters
  ---------------------------------------------------------------------
  WS02006109           JUNCTION        1.28          0.594        1.226
  WS02006110           JUNCTION        0.86          0.657        1.193
  WS02006112           JUNCTION        0.94          0.083        1.597
  WS02006228           JUNCTION        1.28          0.532        1.668
  WS02006229           JUNCTION        1.29          0.628        1.822
  WS02006230           JUNCTION        0.87          0.636        0.934
  WS02006231           JUNCTION        0.99          0.696        0.834
  WS02006232           JUNCTION        1.30          0.727        0.753
  WS02006234           JUNCTION        1.18          0.849        0.391
  WS02006235           JUNCTION        1.25          0.796        0.494
  WS02006238           JUNCTION        1.28          0.961        0.469
  WS02006239           JUNCTION        1.27          1.290        0.000
  WS02006240           JUNCTION        1.28          1.366        0.024
  WS02006242           JUNCTION        1.30          0.820        0.000
  WS02006243           JUNCTION        1.27          0.770        0.000
  WS02006245           JUNCTION        1.27          0.850        0.000
  WS02006247           JUNCTION        1.27          0.760        0.000
  WS02006248           JUNCTION        1.26          0.380        0.000
  WS02006249           JUNCTION        1.26          0.390        0.000
  WS02006251           JUNCTION        1.05          0.414        0.766
  WS02006252           JUNCTION        1.46          1.100        0.000
  WS02006256           JUNCTION        3.50          2.050        0.000
  YS02001580           JUNCTION        0.36          0.450        0.000
  YS02001583           JUNCTION        0.37          0.500        0.000
  YS02001586           JUNCTION        0.49          0.510        0.000
  YS02001590           JUNCTION        0.55          0.750        0.000
  YS02001593           JUNCTION        0.55          0.735        0.105
  YS02001596           JUNCTION        0.65          0.963        0.107
  YS02001600           JUNCTION        0.78          1.190        0.000
  YS02001601           JUNCTION        1.17          1.440        0.000
  YS02001602           JUNCTION        1.02          1.270        0.000
  YS02001605           JUNCTION        0.96          1.180        0.000
  YS02001607           JUNCTION        0.52          0.680        0.000
  YS02001610           JUNCTION        0.55          0.680        0.000
  YS02001613           JUNCTION        0.52          0.698        0.002
  YS02001616           JUNCTION        0.48          0.610        0.000
  YS02001619           JUNCTION        0.47          0.610        0.000
  YS02001622           JUNCTION        0.46          0.620        0.000
  YS02001625           JUNCTION        0.62          0.780        0.000
  YS02001629           JUNCTION        0.43          0.470        0.000
  YS02001633           JUNCTION        0.64          1.060        0.000
  YS02001641           JUNCTION        0.59          1.018        0.082
  YS02001644           JUNCTION        0.55          0.920        0.000
  YS02001647           JUNCTION        0.38          0.752        0.148
  YS02001649           JUNCTION        0.48          0.936        0.114
  YS02001652           JUNCTION        0.31          0.803        0.327
  YS02001655           JUNCTION        0.19          0.794        0.406
  YS02001658           JUNCTION        0.06          0.755        0.545
  YS02001661           JUNCTION        0.01          0.064        1.326
  YS02001748           JUNCTION        0.01          0.719        0.471
  YS02001751           JUNCTION        0.11          0.739        0.461
  YS02001754           JUNCTION        0.23          0.715        0.435
  YS02001757           JUNCTION        0.53          0.996        0.214
  YS02001759           JUNCTION        0.44          0.940        0.270
  YS02001762           JUNCTION        0.41          0.958        0.192
  YS02001765           JUNCTION        0.37          0.947        0.153
  YS02001767           JUNCTION        0.34          0.963        0.067
  YS02001770           JUNCTION        0.32          0.920        0.000
  YS02001774           JUNCTION        0.39          1.007        0.043
  YS02001779           JUNCTION        0.23          0.680        0.000
  YS02001783           JUNCTION        0.33          0.610        0.990
  YS02001784           JUNCTION        0.31          0.445        1.045
  YS02001786           JUNCTION        0.22          0.185        1.245
  YS02001882           JUNCTION        0.28          0.830        0.000
  YS02001884           JUNCTION        0.29          0.870        0.000
  YS02001887           JUNCTION        0.32          0.885        0.065
  YS02001890           JUNCTION        0.33          0.760        0.000
  YS02001895           JUNCTION        0.28          0.587        0.163
  YS02001898           JUNCTION        0.27          0.550        0.190
  YS02001901           JUNCTION        0.31          0.692        0.178
  YS02001904           JUNCTION        0.30          0.644        0.206
  YS02001907           JUNCTION        0.50          0.950        0.000
  YS02001910           JUNCTION        0.35          0.993        0.107
  YS02001915           JUNCTION        0.28          0.930        0.070
  YS02001918           JUNCTION        0.21          0.810        0.000
  YS02001920           JUNCTION        0.22          1.140        0.000
  YS02001923           JUNCTION        0.01          0.820        0.000
  YS02001926           JUNCTION        0.01          0.900        0.000
  YS02001929           JUNCTION        0.01          0.780        0.000
  YS02006553           JUNCTION        0.51          1.015        0.175
  YS02006556           JUNCTION        0.43          1.001        0.349
  YS02006558           JUNCTION        0.42          0.991        0.409
  YS02006561           JUNCTION        0.18          0.363        0.787
  YS02163301           JUNCTION        0.63          0.963        0.067
  YS02163601           JUNCTION        0.67          1.080        0.000
  YS02164001           JUNCTION        0.59          1.048        0.052
  
  
  *********************
  Node Flooding Summary
  *********************
  
  Flooding refers to all water that overflows a node, whether it ponds or not.
  --------------------------------------------------------------------------
                                                             Total   Maximum
                                 Maximum   Time of Max       Flood    Ponded
                        Hours       Rate    Occurrence      Volume     Depth
  Node                 Flooded       LPS   days hr:min    10^6 ltr    Meters
  --------------------------------------------------------------------------
  WS02006242              0.01      3.53      0  02:02       0.000     0.000
  WS02006243              0.01      2.00      0  02:02       0.000     0.000
  WS02006245              0.01      1.81      0  02:02       0.000     0.000
  WS02006247              0.01      1.46      0  02:02       0.000     0.000
  WS02006248              0.01     18.65      0  02:10       0.000     0.000
  WS02006249              1.02     85.75      0  02:28       0.248     0.000
  WS02006252              0.01    245.63      0  00:00       0.000     0.000
  WS02006256              1.23    293.19      0  00:00       0.438     0.000
  YS02001580              0.01     66.44      0  01:58       0.000     0.000
  YS02001583              0.01    122.41      0  01:58       0.000     0.000
  YS02001586              0.27    146.38      0  02:04       0.083     0.000
  YS02001590              0.01     52.84      0  01:56       0.000     0.000
  YS02001600              0.01      2.87      0  01:58       0.000     0.000
  YS02001601              0.42    739.45      0  02:03       0.626     0.000
  YS02001602              0.34     61.93      0  02:03       0.065     0.000
  YS02001605              0.01      1.69      0  01:57       0.000     0.000
  YS02001607              0.01      8.03      0  01:57       0.000     0.000
  YS02001610              0.28    300.40      0  02:04       0.186     0.000
  YS02001616              0.01     17.26      0  01:57       0.000     0.000
  YS02001619              0.01     57.00      0  01:57       0.000     0.000
  YS02001622              0.01    183.79      0  01:57       0.000     0.000
  YS02001625              0.25    889.85      0  02:04       0.377     0.000
  YS02001629              0.05    247.88      0  01:57       0.007     0.000
  YS02001633              0.01      0.48      0  02:02       0.000     0.000
  YS02001644              0.04    249.66      0  02:02       0.020     0.000
  YS02001770              0.01     11.10      0  02:02       0.000     0.000
  YS02001779              0.01    433.03      0  02:00       0.005     0.000
  YS02001882              0.01     11.45      0  01:59       0.000     0.000
  YS02001884              0.01      7.39      0  01:59       0.000     0.000
  YS02001890              0.03     67.26      0  01:59       0.003     0.000
  YS02001907              0.16   1037.06      0  02:02       0.270     0.000
  YS02001918              0.01    206.15      0  02:01       0.003     0.000
  YS02001920              0.01     58.73      0  02:01       0.000     0.000
  YS02001923              0.01    202.79      0  02:01       0.001     0.000
  YS02001926              0.01    462.65      0  02:01       0.003     0.000
  YS02001929              0.01    225.37      0  02:01       0.001     0.000
  YS02163601              0.01      1.07      0  02:02       0.000     0.000
  
  
  **********************
  Storage Volume Summary
  **********************
  
  ------------------------------------------------------------------------------------------------
                         Average    Avg   Evap  Exfil     Maximum    Max    Time of Max    Maximum
                          Volume   Pcnt   Pcnt   Pcnt      Volume   Pcnt     Occurrence    Outflow
  Storage Unit           1000 m³   Full   Loss   Loss     1000 m³   Full    days hr:min        LPS
  ------------------------------------------------------------------------------------------------
  CC-storage               2.251   35.1    0.0    0.0       4.258   66.4       0  02:21    1783.53
  JK-storage               0.133   45.5    0.0    0.0       0.213   73.0       0  02:01    2300.00
  XR-storage               0.937   65.1    0.0    0.0       1.111   77.2       0  08:00     380.00
  
  
  ***********************
  Outfall Loading Summary
  ***********************
  
  -----------------------------------------------------------
                         Flow       Avg       Max       Total
                         Freq      Flow      Flow      Volume
  Outfall Node           Pcnt       LPS       LPS    10^6 ltr
  -----------------------------------------------------------
  CC-1                  31.37    683.00    683.00       3.407
  CC-2                  29.22    683.00    683.00       3.199
  JK-1                  13.62   1000.00   1000.00       1.607
  JK-2                   0.26   1000.00   1000.00       0.048
  WSC                   99.93    374.76    752.50       8.839
  -----------------------------------------------------------
  System                34.88   3740.76   3366.23      17.101
  
  
  ********************
  Link Flow Summary
  ********************
  
  -----------------------------------------------------------------------------
                                 Maximum  Time of Max   Maximum    Max/    Max/
                                  |Flow|   Occurrence   |Veloc|    Full    Full
  Link                 Type          LPS  days hr:min     m/sec    Flow   Depth
  -----------------------------------------------------------------------------
  1                    CONDUIT    752.50     0  03:15      3.08    0.26    0.35
  WS02001211WS02001212 CONDUIT    202.71     0  03:31      0.54    0.15    0.51
  WS02001212WS02001213 CONDUIT    204.74     0  03:30      1.04    0.32    0.36
  WS02001213WS02003059 CONDUIT    211.04     0  03:29      0.47    0.35    0.67
  WS02003059WS02003060 CONDUIT    217.46     0  03:29      0.67    0.14    0.58
  WS02003060WS02003069 CONDUIT    750.35     0  03:13      1.77    0.29    0.40
  WS02003066WSF200     CONDUIT    536.32     0  02:52      2.73    0.09    0.23
  WS02003067WS02003066 CONDUIT    536.29     0  02:52      1.21    0.17    0.42
  WS02003069WS02003072 CONDUIT    750.67     0  03:14      1.51    0.36    0.45
  WS02003072WS02003073 CONDUIT    750.67     0  03:14      1.60    1.62    0.43
  WS02004138WS02004139 CONDUIT    190.84     0  00:29      2.17    0.04    0.33
  WS02004139WS02001211 CONDUIT    193.18     0  03:25      0.54    0.24    0.47
  WS02004401WS02004402 CONDUIT    538.22     0  02:49      0.97    0.65    0.86
  WS02004402WS02004403 CONDUIT    537.71     0  02:49      0.97    0.77    0.88
  WS02004403WS02004404 CONDUIT    537.59     0  02:49      0.92    0.39    0.93
  WS02004404WS02004405 CONDUIT    537.56     0  02:49      1.08    5.27    0.96
  WS02004405WS02004406 CONDUIT    537.72     0  02:50      0.99    1.06    0.96
  WS02004406WS02004407 CONDUIT    537.28     0  02:50      1.04    0.24    0.63
  WS02004407WS02004409 CONDUIT    537.06     0  02:50      1.57    0.19    0.48
  WS02004409WS02004410 CONDUIT    536.76     0  02:50      1.04    0.69    0.67
  WS02004410WS02004411 CONDUIT    536.58     0  02:51      0.97    0.73    0.69
  WS02004411WS02004412 CONDUIT    536.51     0  02:51      0.92    0.76    0.69
  WS02004412WS02004413 CONDUIT    536.40     0  02:51      0.82    0.36    0.78
  WS02004413WS02003067 CONDUIT    536.27     0  02:51      1.11    0.23    0.59
  WS02006109WS02006110 CONDUIT    563.04     0  02:28      1.12    1.08    1.00
  WS02006110WS02006113 CONDUIT    568.31     0  02:22      1.37    0.52    0.79
  WS02006111WS02006112 CONDUIT    543.72     0  02:48      1.82    0.26    0.67
  WS02006112WS02006115 CONDUIT    553.55     0  02:34      0.86    0.33    0.87
  WS02006113WS02006111 CONDUIT    562.22     0  02:30      2.47    0.67    0.46
  WS02006115WS02006116 CONDUIT    539.86     0  02:49      1.04    0.69    0.76
  WS02006116WS02004401 CONDUIT    539.34     0  02:38      0.98    0.74    0.84
  WS02006228WS02006109 CONDUIT    561.55     0  02:28      1.12    2.45    1.00
  WS02006229WS02006228 CONDUIT    560.67     0  02:28      1.15    1.86    1.00
  WS02006230WS02006229 CONDUIT    560.16     0  02:28      1.46   12.47    1.00
  WS02006231WS02006230 CONDUIT    586.07     0  02:16      1.61    8.89    1.00
  WS02006232WS02006231 CONDUIT    580.32     0  02:36      1.51    1.22    1.00
  WS02006234WS02006232 CONDUIT    579.59     0  02:36      1.51    1.17    1.00
  WS02006235WS02006234 CONDUIT    575.03     0  02:36      1.49    6.07    1.00
  WS02006238WS02006235 CONDUIT    424.40     0  02:30      1.56    0.95    1.00
  WS02006239WS02006238 CONDUIT    423.68     0  02:30      1.11    1.36    1.00
  WS02006240WS02006239 CONDUIT    422.75     0  02:25      1.24    1.33    1.00
  WS02006242WS02006240 CONDUIT    421.60     0  03:17      1.12    1.67    1.00
  WS02006243WS02006242 CONDUIT    421.61     0  03:17      1.39    0.90    1.00
  WS02006245WS02006243 CONDUIT    421.81     0  03:17      1.45    1.25    1.00
  WS02006247WS02006245 CONDUIT    420.65     0  03:17      1.44    3.34    1.00
  WS02006248WS02006247 CONDUIT    419.32     0  03:17      1.45    0.91    1.00
  WS02006249WS02006248 CONDUIT    420.41     0  03:17      1.37    2.30    1.00
  WS02006251WS02006249 CONDUIT    458.97     0  00:00      1.99    1.32    1.00
  WS02006252WS02006251 CONDUIT    408.92     0  02:16     25.11    1.50    1.00
  WS02006256WS02006235 CONDUIT    289.22     0  01:51      4.23    3.06    1.00
  WSF200WS02003060     CONDUIT    536.39     0  02:54      1.76    0.12    0.32
  YS02001580YS02001583 CONDUIT    129.65     0  01:57      0.78    0.50    1.00
  YS02001583YS02001586 CONDUIT    181.77     0  01:58      0.78    0.27    1.00
  YS02001586YS02001590 CONDUIT    317.92     0  02:13      1.27    0.56    1.00
  YS02001590YS02001593 CONDUIT    318.05     0  02:06      1.12    2.00    1.00
  YS02001593YS02001596 CONDUIT    317.95     0  02:08      1.73    0.50    1.00
  YS02001596YS02001600 CONDUIT    318.04     0  02:10      1.21    0.62    1.00
  YS02001600YS02001601 CONDUIT    317.95     0  02:13      1.12    0.55    1.00
  YS02001601YS02001602 CONDUIT    532.24     0  01:57      1.88    1.92    1.00
  YS02001602YS02001605 CONDUIT    532.18     0  01:57      1.88   11.26    1.00
  YS02001605YS02001607 CONDUIT    532.17     0  01:57      1.88    2.92    1.00
  YS02001607YS02001610 CONDUIT    542.31     0  01:57      0.69    0.52    1.00
  YS02001610YS02001613 CONDUIT    548.78     0  01:57      0.70    0.63    1.00
  YS02001613YS02001616 CONDUIT    545.22     0  01:57      0.70    0.47    1.00
  YS02001616YS02001619 CONDUIT    522.08     0  01:57      0.67    0.91    1.00
  YS02001619YS02001622 CONDUIT    939.63     0  01:59      1.20    1.38    1.00
  YS02001622YS02001625 CONDUIT    948.00     0  01:57      1.21    0.51    1.00
  YS02001625YS02001629 CONDUIT    948.01     0  01:57      1.21    0.45    1.00
  YS02001629YS02163301 CONDUIT    936.51     0  01:59      1.19    1.15    1.00
  YS02001633YS02163601 CONDUIT   1425.13     0  01:59      1.81    1.50    1.00
  YS02001641YS02001644 CONDUIT   1422.76     0  01:59      1.81    4.60    1.00
  YS02001644YS02001647 CONDUIT   1847.59     0  01:59      2.39    1.09    1.00
  YS02001647YS02001649 CONDUIT   1849.72     0  01:59      2.38    0.98    1.00
  YS02001649YS02001757 CONDUIT   2057.61     0  01:59      2.62    1.25    1.00
  YS02001652YS02001649 CONDUIT    671.21     0  02:02      0.85    0.33    1.00
  YS02001655YS02001652 CONDUIT    668.59     0  02:02      1.33    0.32    1.00
  YS02001658YS02001655 CONDUIT    666.74     0  02:02      1.96    0.28    1.00
  YS02001661YS02001658 CONDUIT    670.58     0  02:01      2.37    0.26    1.00
  YS02001664YS02001661 CONDUIT    766.72     0  02:03      2.37    0.24    0.73
  YS02001745YS02001748 CONDUIT    643.40     0  02:01      2.21    0.25    0.86
  YS02001748YS02001751 CONDUIT    416.65     0  02:02      1.73    0.21    1.00
  YS02001751YS02001754 CONDUIT    415.90     0  02:02      1.47    0.20    1.00
  YS02001754YS02001757 CONDUIT    415.90     0  02:02      0.53    0.17    1.00
  YS02001757CaochengTiaoxuchi CONDUIT   3160.47     0  02:02      4.02    1.37    1.00
  YS02001759YS02001757 CONDUIT   1188.39     0  02:01      1.51    0.84    1.00
  YS02001762YS02001759 CONDUIT    698.48     0  02:01      0.89    0.80    1.00
  YS02001765YS02001762 CONDUIT    692.07     0  02:01      0.88    0.65    1.00
  YS02001767YS02001765 CONDUIT    685.79     0  02:01      0.87    0.86    1.00
  YS02001770YS02001767 CONDUIT    683.05     0  02:01      0.87    2.71    1.00
  YS02001774YS02001770 CONDUIT    492.37     0  02:00      0.63    0.31    1.00
  YS02001779YS02001774 CONDUIT    496.05     0  02:00      0.64    0.25    1.00
  YS02001783YS02001784 CONDUIT   1151.21     0  02:01      2.29    1.59    1.00
  YS02001784YS02001785 CONDUIT   1152.18     0  02:01      2.29    2.68    1.00
  YS02001786YS02001788 CONDUIT   1157.31     0  02:00      2.48    2.23    0.89
  YS02001788YS02001790 CONDUIT   1163.90     0  02:01      2.68    0.86    0.83
  YS02001790YS02001791 CONDUIT   1274.57     0  02:01      3.42    1.39    0.70
  YS02001791YS02001793 CONDUIT   1233.20     0  02:04      6.50    0.53    0.44
  YS02001793JiankangQianchi CONDUIT   1209.36     0  02:10      2.40    0.10    0.65
  YS02001882YS02001884 CONDUIT     65.26     0  01:59      0.12    0.07    1.00
  YS02001884YS02001887 CONDUIT     88.59     0  01:58      0.11    0.12    1.00
  YS02001887YS02001890 CONDUIT    532.59     0  02:01      0.68    0.91    1.00
  YS02001890YS02001895 CONDUIT    509.74     0  02:02      0.65    0.24    1.00
  YS02001895YS02001898 CONDUIT    508.83     0  02:02      0.65    0.88    1.00
  YS02001898YS02001901 CONDUIT    515.94     0  01:59      0.66    0.33    1.00
  YS02001901YS02001904 CONDUIT    519.24     0  01:59      0.66    0.81    1.00
  YS02001904YS02001907 CONDUIT    523.89     0  01:59      0.67    0.18    1.00
  YS02001907YS02006553 CONDUIT    793.14     0  02:11      0.88    0.93    1.00
  YS02001910YS02001907 CONDUIT   1012.38     0  02:02      1.29    0.57    1.00
  YS02001915YS02001910 CONDUIT   1011.05     0  02:02      1.29    0.50    1.00
  YS02001918YS02001915 CONDUIT    485.01     0  02:00      0.62    0.27    1.00
  YS02001920YS02001918 CONDUIT    463.06     0  02:01      0.65    0.45    1.00
  YS02001923YS02001920 CONDUIT    465.05     0  02:01      0.72    0.21    1.00
  YS02001926YS02001923 CONDUIT    571.85     0  02:00      1.00    0.82    1.00
  YS02001929YS02001926 CONDUIT    477.62     0  02:01      1.20    0.23    1.00
  YS02006553YS02006556 CONDUIT    793.23     0  02:11      1.01    0.68    1.00
  YS02006556YS02006558 CONDUIT    793.22     0  02:11      1.01    0.63    1.00
  YS02006558YS02006561 CONDUIT   1175.75     0  02:00      4.16    2.60    1.00
  YS02006561YS02001783 CONDUIT   1151.01     0  02:01      2.29    0.60    1.00
  YS02163301YS02001633 CONDUIT    936.49     0  01:59      1.19    0.88    1.00
  YS02163601YS02164001 CONDUIT   1423.32     0  01:59      1.81    1.26    1.00
  YS02164001YS02001641 CONDUIT   1421.06     0  01:59      1.81    1.94    1.00
  CC-R1                PUMP       683.00     0  00:00              1.00
  CC-R2                PUMP       683.00     0  00:00              1.00
  CC-S1                PUMP       200.00     0  00:00              1.00
  CC-S2                PUMP       200.00     0  00:00              1.00
  JK-R1                PUMP      1000.00     0  00:00              1.00
  JK-R2                PUMP      1000.00     0  00:00              1.00
  JK-S                 PUMP       300.00     0  00:00              1.00
  XR-1                 PUMP        95.00     0  00:00              1.00
  XR-2                 PUMP        95.00     0  00:00              1.00
  XR-3                 PUMP        95.00     0  00:00              1.00
  XR-4                 PUMP        95.00     0  00:00              1.00
  
  
  ***************************
  Flow Classification Summary
  ***************************
  
  -------------------------------------------------------------------------------------
                      Adjusted    ---------- Fraction of Time in Flow Class ---------- 
                       /Actual         Up    Down  Sub   Sup   Up    Down  Norm  Inlet 
  Conduit               Length    Dry  Dry   Dry   Crit  Crit  Crit  Crit  Ltd   Ctrl  
  -------------------------------------------------------------------------------------
  1                       1.00   0.00  0.00  0.00  0.00  1.00  0.00  0.00  0.13  0.00
  WS02001211WS02001212    1.00   0.00  0.02  0.00  0.98  0.00  0.00  0.00  0.00  0.00
  WS02001212WS02001213    1.00   0.02  0.00  0.00  0.18  0.00  0.79  0.00  0.00  0.00
  WS02001213WS02003059    1.00   0.00  0.01  0.00  0.99  0.00  0.00  0.00  0.00  0.00
  WS02003059WS02003060    1.00   0.00  0.00  0.00  1.00  0.00  0.00  0.00  0.03  0.00
  WS02003060WS02003069    1.00   0.00  0.00  0.00  0.98  0.02  0.00  0.00  0.74  0.00
  WS02003066WSF200        1.00   0.13  0.00  0.00  0.00  0.87  0.00  0.00  0.74  0.00
  WS02003067WS02003066    1.00   0.10  0.02  0.00  0.88  0.00  0.00  0.00  0.00  0.00
  WS02003069WS02003072    1.00   0.00  0.00  0.00  1.00  0.00  0.00  0.00  0.79  0.00
  WS02003072WS02003073    1.00   0.00  0.00  0.00  0.00  0.00  0.00  1.00  0.00  0.00
  WS02004138WS02004139    1.00   0.00  0.00  0.00  0.97  0.01  0.00  0.02  0.98  0.00
  WS02004139WS02001211    1.00   0.00  0.00  0.00  0.99  0.00  0.00  0.00  0.00  0.00
  WS02004401WS02004402    1.00   0.02  0.00  0.00  0.98  0.00  0.00  0.00  0.00  0.00
  WS02004402WS02004403    1.00   0.02  0.00  0.00  0.97  0.00  0.00  0.00  0.00  0.00
  WS02004403WS02004404    1.00   0.00  0.03  0.00  0.97  0.00  0.00  0.00  0.00  0.00
  WS02004404WS02004405    1.00   0.00  0.00  0.00  1.00  0.00  0.00  0.00  0.00  0.00
  WS02004405WS02004406    1.00   0.00  0.00  0.00  1.00  0.00  0.00  0.00  0.00  0.00
  WS02004406WS02004407    1.00   0.00  0.05  0.00  0.95  0.00  0.00  0.00  0.00  0.00
  WS02004407WS02004409    1.00   0.05  0.00  0.00  0.94  0.01  0.00  0.00  0.94  0.00
  WS02004409WS02004410    1.00   0.05  0.00  0.00  0.95  0.00  0.00  0.00  0.03  0.00
  WS02004410WS02004411    1.00   0.05  0.00  0.00  0.95  0.00  0.00  0.00  0.01  0.00
  WS02004411WS02004412    1.00   0.05  0.00  0.00  0.95  0.00  0.00  0.00  0.00  0.00
  WS02004412WS02004413    1.00   0.05  0.00  0.00  0.94  0.00  0.00  0.00  0.01  0.00
  WS02004413WS02003067    1.00   0.06  0.04  0.00  0.00  0.00  0.90  0.00  0.00  0.00
  WS02006109WS02006110    1.00   0.00  0.01  0.00  0.98  0.00  0.01  0.00  0.00  0.00
  WS02006110WS02006113    1.00   0.01  0.01  0.00  0.98  0.00  0.00  0.00  0.00  0.00
  WS02006111WS02006112    1.00   0.02  0.00  0.00  0.98  0.00  0.00  0.00  0.98  0.00
  WS02006112WS02006115    1.00   0.02  0.00  0.00  0.97  0.00  0.00  0.00  0.00  0.00
  WS02006113WS02006111    1.00   0.02  0.00  0.00  0.00  0.98  0.00  0.00  0.08  0.00
  WS02006115WS02006116    1.00   0.02  0.00  0.00  0.97  0.00  0.00  0.01  0.00  0.00
  WS02006116WS02004401    1.00   0.02  0.00  0.00  0.98  0.00  0.00  0.00  0.00  0.00
  WS02006228WS02006109    1.00   0.00  0.00  0.00  1.00  0.00  0.00  0.00  0.00  0.00
  WS02006229WS02006228    1.00   0.00  0.00  0.00  0.99  0.00  0.00  0.01  0.00  0.00
  WS02006230WS02006229    1.00   0.00  0.00  0.00  0.99  0.00  0.00  0.01  0.00  0.00
  WS02006231WS02006230    1.00   0.00  0.00  0.00  0.17  0.00  0.83  0.00  0.00  0.00
  WS02006232WS02006231    1.00   0.00  0.00  0.00  0.99  0.00  0.01  0.00  0.00  0.00
  WS02006234WS02006232    1.00   0.00  0.00  0.00  1.00  0.00  0.00  0.00  0.47  0.00
  WS02006235WS02006234    1.00   0.00  0.00  0.00  0.49  0.00  0.51  0.00  0.00  0.00
  WS02006238WS02006235    1.00   0.00  0.00  0.00  1.00  0.00  0.00  0.00  0.00  0.00
  WS02006239WS02006238    1.00   0.00  0.00  0.00  1.00  0.00  0.00  0.00  0.57  0.00
  WS02006240WS02006239    1.00   0.00  0.00  0.00  0.34  0.00  0.00  0.66  0.01  0.00
  WS02006242WS02006240    1.00   0.00  0.00  0.00  1.00  0.00  0.00  0.00  0.00  0.00
  WS02006243WS02006242    1.00   0.00  0.00  0.00  0.99  0.00  0.00  0.01  0.76  0.00
  WS02006245WS02006243    1.00   0.00  0.00  0.00  0.42  0.00  0.00  0.57  0.00  0.00
  WS02006247WS02006245    1.00   0.00  0.00  0.00  0.98  0.00  0.00  0.02  0.00  0.00
  WS02006248WS02006247    1.00   0.00  0.00  0.00  0.99  0.00  0.00  0.01  0.23  0.00
  WS02006249WS02006248    1.00   0.00  0.00  0.00  0.29  0.00  0.71  0.00  0.00  0.00
  WS02006251WS02006249    1.00   0.00  0.00  0.00  0.99  0.01  0.00  0.00  0.75  0.00
  WS02006252WS02006251    1.00   0.00  0.75  0.00  0.13  0.00  0.12  0.00  0.00  0.00
  WS02006256WS02006235    1.00   0.00  0.00  0.00  1.00  0.00  0.00  0.00  0.00  0.00
  WSF200WS02003060        1.00   0.00  0.13  0.00  0.71  0.16  0.00  0.00  0.70  0.00
  YS02001580YS02001583    1.00   0.24  0.60  0.00  0.16  0.00  0.00  0.00  0.69  0.00
  YS02001583YS02001586    1.00   0.49  0.29  0.00  0.21  0.00  0.00  0.00  0.69  0.00
  YS02001586YS02001590    1.00   0.13  0.00  0.00  0.38  0.04  0.00  0.45  0.34  0.00
  YS02001590YS02001593    1.00   0.13  0.01  0.00  0.08  0.00  0.78  0.00  0.00  0.00
  YS02001593YS02001596    1.00   0.13  0.00  0.00  0.10  0.01  0.00  0.76  0.02  0.00
  YS02001596YS02001600    1.00   0.14  0.00  0.00  0.17  0.01  0.00  0.68  0.06  0.00
  YS02001600YS02001601    1.00   0.13  0.01  0.00  0.86  0.00  0.00  0.00  0.63  0.00
  YS02001601YS02001602    1.00   0.13  0.01  0.00  0.86  0.00  0.00  0.00  0.00  0.00
  YS02001602YS02001605    1.00   0.14  0.00  0.00  0.86  0.00  0.00  0.00  0.00  0.00
  YS02001605YS02001607    1.00   0.14  0.00  0.00  0.86  0.00  0.00  0.00  0.00  0.00
  YS02001607YS02001610    1.00   0.13  0.01  0.00  0.86  0.00  0.00  0.00  0.02  0.00
  YS02001610YS02001613    1.00   0.13  0.00  0.00  0.87  0.00  0.00  0.00  0.01  0.00
  YS02001613YS02001616    1.00   0.13  0.00  0.00  0.87  0.00  0.00  0.00  0.00  0.00
  YS02001616YS02001619    1.00   0.13  0.00  0.00  0.87  0.00  0.00  0.00  0.00  0.00
  YS02001619YS02001622    1.00   0.13  0.00  0.00  0.87  0.00  0.00  0.00  0.35  0.00
  YS02001622YS02001625    1.00   0.13  0.00  0.00  0.87  0.00  0.00  0.00  0.05  0.00
  YS02001625YS02001629    1.00   0.13  0.05  0.00  0.12  0.00  0.70  0.00  0.00  0.00
  YS02001629YS02163301    1.00   0.16  0.01  0.00  0.83  0.00  0.00  0.00  0.00  0.00
  YS02001633YS02163601    1.00   0.00  0.01  0.00  0.99  0.00  0.00  0.00  0.15  0.00
  YS02001641YS02001644    1.00   0.00  0.01  0.00  0.99  0.00  0.00  0.00  0.00  0.00
  YS02001644YS02001647    1.00   0.00  0.17  0.00  0.83  0.00  0.00  0.00  0.00  0.00
  YS02001647YS02001649    1.00   0.00  0.17  0.00  0.54  0.28  0.00  0.00  0.59  0.00
  YS02001649YS02001757    1.00   0.00  0.00  0.00  0.69  0.31  0.00  0.00  0.56  0.00
  YS02001652YS02001649    1.00   0.00  0.00  0.00  0.96  0.04  0.00  0.00  0.78  0.00
  YS02001655YS02001652    1.00   0.00  0.00  0.00  0.13  0.03  0.00  0.84  0.06  0.00
  YS02001658YS02001655    1.00   0.00  0.14  0.00  0.64  0.22  0.00  0.00  0.74  0.00
  YS02001661YS02001658    1.00   0.14  0.00  0.00  0.51  0.35  0.00  0.00  0.74  0.00
  YS02001664YS02001661    1.00   0.13  0.00  0.00  0.78  0.10  0.00  0.00  0.86  0.00
  YS02001745YS02001748    1.00   0.00  0.00  0.00  0.06  0.01  0.00  0.93  0.04  0.00
  YS02001748YS02001751    1.00   0.00  0.00  0.00  0.81  0.19  0.00  0.00  0.79  0.00
  YS02001751YS02001754    1.00   0.00  0.00  0.00  0.11  0.01  0.00  0.88  0.02  0.00
  YS02001754YS02001757    1.00   0.00  0.00  0.00  1.00  0.00  0.00  0.00  0.88  0.00
  YS02001757CaochengTiaoxuchi    1.00   0.00  0.00  0.00  1.00  0.00  0.00  0.00  0.87  0.00
  YS02001759YS02001757    1.00   0.00  0.00  0.00  1.00  0.00  0.00  0.00  0.63  0.00
  YS02001762YS02001759    1.00   0.00  0.00  0.00  1.00  0.00  0.00  0.00  0.04  0.00
  YS02001765YS02001762    1.00   0.00  0.00  0.00  1.00  0.00  0.00  0.00  0.76  0.00
  YS02001767YS02001765    1.00   0.00  0.00  0.00  1.00  0.00  0.00  0.00  0.00  0.00
  YS02001770YS02001767    1.00   0.00  0.00  0.00  1.00  0.00  0.00  0.00  0.00  0.00
  YS02001774YS02001770    1.00   0.00  0.13  0.00  0.60  0.00  0.27  0.00  0.03  0.00
  YS02001779YS02001774    1.00   0.00  0.00  0.00  1.00  0.00  0.00  0.00  0.81  0.00
  YS02001783YS02001784    1.00   0.00  0.18  0.00  0.82  0.00  0.00  0.00  0.58  0.00
  YS02001784YS02001785    1.00   0.00  0.00  0.00  1.00  0.00  0.00  0.00  0.17  0.00
  YS02001786YS02001788    1.00   0.00  0.00  0.00  0.80  0.20  0.00  0.00  0.00  0.00
  YS02001788YS02001790    1.00   0.00  0.00  0.00  0.21  0.79  0.00  0.00  0.83  0.00
  YS02001790YS02001791    1.00   0.00  0.00  0.00  0.01  0.99  0.00  0.00  0.16  0.00
  YS02001791YS02001793    1.00   0.00  0.00  0.00  0.00  1.00  0.00  0.00  0.01  0.00
  YS02001793JiankangQianchi    1.00   0.00  0.00  0.00  1.00  0.00  0.00  0.00  0.97  0.00
  YS02001882YS02001884    1.00   0.15  0.01  0.00  0.84  0.00  0.00  0.00  0.00  0.00
  YS02001884YS02001887    1.00   0.06  0.05  0.00  0.89  0.00  0.00  0.00  0.00  0.00
  YS02001887YS02001890    1.00   0.00  0.00  0.00  0.97  0.00  0.03  0.00  0.00  0.00
  YS02001890YS02001895    1.00   0.00  0.16  0.00  0.83  0.00  0.00  0.00  0.00  0.00
  YS02001895YS02001898    1.00   0.17  0.00  0.00  0.81  0.00  0.02  0.00  0.00  0.00
  YS02001898YS02001901    1.00   0.17  0.00  0.00  0.83  0.00  0.00  0.00  0.01  0.00
  YS02001901YS02001904    1.00   0.17  0.00  0.00  0.83  0.00  0.00  0.00  0.00  0.00
  YS02001904YS02001907    1.00   0.00  0.17  0.00  0.83  0.00  0.00  0.00  0.00  0.00
  YS02001907YS02006553    1.00   0.00  0.02  0.00  0.98  0.00  0.00  0.00  0.00  0.00
  YS02001910YS02001907    1.00   0.00  0.00  0.00  0.97  0.00  0.00  0.03  0.12  0.00
  YS02001915YS02001910    1.00   0.00  0.00  0.00  0.97  0.03  0.00  0.00  0.16  0.00
  YS02001918YS02001915    1.00   0.00  0.01  0.00  0.98  0.02  0.00  0.00  0.78  0.00
  YS02001920YS02001918    1.00   0.00  0.01  0.00  0.99  0.00  0.00  0.00  0.00  0.00
  YS02001923YS02001920    1.00   0.00  0.00  0.00  1.00  0.00  0.00  0.00  0.95  0.00
  YS02001926YS02001923    1.00   0.00  0.07  0.00  0.04  0.00  0.89  0.00  0.00  0.00
  YS02001929YS02001926    1.00   0.00  0.13  0.00  0.87  0.00  0.00  0.00  0.84  0.00
  YS02006553YS02006556    1.00   0.01  0.00  0.00  0.99  0.00  0.00  0.00  0.03  0.00
  YS02006556YS02006558    1.00   0.00  0.00  0.00  1.00  0.00  0.00  0.00  0.00  0.00
  YS02006558YS02006561    1.00   0.18  0.00  0.00  0.03  0.78  0.00  0.00  0.19  0.00
  YS02006561YS02001783    1.00   0.18  0.00  0.00  0.06  0.76  0.00  0.00  0.72  0.00
  YS02163301YS02001633    1.00   0.00  0.15  0.00  0.85  0.00  0.00  0.00  0.00  0.00
  YS02163601YS02164001    1.00   0.00  0.08  0.00  0.92  0.00  0.00  0.00  0.00  0.00
  YS02164001YS02001641    1.00   0.01  0.07  0.00  0.92  0.00  0.00  0.00  0.06  0.00
  
  
  *************************
  Conduit Surcharge Summary
  *************************
  
  ----------------------------------------------------------------------------
                                                           Hours        Hours 
                         --------- Hours Full --------   Above Full   Capacity
  Conduit                Both Ends  Upstream  Dnstream   Normal Flow   Limited
  ----------------------------------------------------------------------------
  WS02003072WS02003073        0.01      0.01      0.01      1.43         0.01
  WS02004404WS02004405        0.01      0.01      0.01      1.72         0.01
  WS02004405WS02004406        0.01      0.01      0.01      0.86         0.01
  WS02006109WS02006110        0.85      0.85      1.30      0.97         0.01
  WS02006110WS02006113        0.01      0.01      1.30      0.01         0.01
  WS02006111WS02006112        0.01      0.01      1.38      0.01         0.01
  WS02006112WS02006115        0.01      0.01      0.94      0.01         0.01
  WS02006228WS02006109        1.28      1.30      1.28      1.45         1.28
  WS02006229WS02006228        1.28      1.29      1.28      1.39         1.27
  WS02006230WS02006229        1.34      1.38      1.34      2.09         1.34
  WS02006231WS02006230        0.87      0.87      1.02      1.90         0.01
  WS02006232WS02006231        0.98      0.98      1.30      1.04         0.01
  WS02006234WS02006232        1.24      1.24      1.30      1.03         1.01
  WS02006235WS02006234        1.17      1.18      1.24      1.77         0.01
  WS02006238WS02006235        1.26      1.26      1.30      0.01         0.01
  WS02006239WS02006238        1.28      1.29      1.28      1.32         1.16
  WS02006240WS02006239        1.26      1.28      1.27      1.32         1.10
  WS02006242WS02006240        1.28      1.28      1.32      1.38         0.01
  WS02006243WS02006242        1.27      1.27      1.29      0.01         0.04
  WS02006245WS02006243        1.27      1.27      1.27      0.40         0.39
  WS02006247WS02006245        1.27      1.27      1.27      1.55         1.26
  WS02006248WS02006247        1.26      1.26      1.27      0.01         0.04
  WS02006249WS02006248        1.26      1.26      1.26      1.52         0.01
  WS02006251WS02006249        1.26      1.27      1.26      1.38         1.20
  WS02006252WS02006251        1.46      1.46      1.46      1.46         0.01
  WS02006256WS02006235        1.78      1.82      3.47      1.23         0.01
  YS02001580YS02001583        0.36      0.36      0.41      0.01         0.01
  YS02001583YS02001586        0.37      0.37      0.49      0.01         0.01
  YS02001586YS02001590        0.49      0.49      0.55      0.01         0.01
  YS02001590YS02001593        0.55      0.55      0.57      0.59         0.01
  YS02001593YS02001596        0.56      0.56      0.65      0.01         0.01
  YS02001596YS02001600        0.69      0.69      0.78      0.01         0.01
  YS02001600YS02001601        0.84      0.84      1.17      0.01         0.01
  YS02001601YS02001602        1.02      1.02      1.23      0.79         0.01
  YS02001602YS02001605        0.96      0.96      1.02      2.01         0.01
  YS02001605YS02001607        0.92      0.96      0.92      1.11         0.92
  YS02001607YS02001610        0.52      0.52      0.55      0.01         0.01
  YS02001610YS02001613        0.52      0.52      0.55      0.01         0.01
  YS02001613YS02001616        0.48      0.48      0.52      0.01         0.01
  YS02001616YS02001619        0.47      0.47      0.48      0.01         0.01
  YS02001619YS02001622        0.46      0.47      0.46      0.57         0.44
  YS02001622YS02001625        0.46      0.46      0.62      0.01         0.01
  YS02001625YS02001629        0.43      0.43      0.62      0.01         0.01
  YS02001629YS02163301        0.62      0.62      0.63      0.13         0.14
  YS02001633YS02163601        0.64      0.64      0.67      0.31         0.31
  YS02001641YS02001644        0.55      0.59      0.55      1.29         0.55
  YS02001644YS02001647        0.38      0.38      0.55      0.03         0.01
  YS02001647YS02001649        0.38      0.38      0.48      0.01         0.01
  YS02001649YS02001757        0.47      0.48      0.53      0.07         0.10
  YS02001652YS02001649        0.33      0.33      0.48      0.01         0.01
  YS02001655YS02001652        0.19      0.19      0.31      0.01         0.01
  YS02001658YS02001655        0.06      0.06      0.19      0.01         0.01
  YS02001661YS02001658        0.01      0.01      0.06      0.01         0.01
  YS02001664YS02001661        0.01      0.01      0.01      0.01         0.01
  YS02001745YS02001748        0.01      0.01      0.01      0.01         0.01
  YS02001748YS02001751        0.03      0.03      0.11      0.01         0.01
  YS02001751YS02001754        0.11      0.11      0.23      0.01         0.01
  YS02001754YS02001757        0.27      0.27      0.53      0.01         0.01
  YS02001757CaochengTiaoxuchi        0.53      0.53      1.04      0.20         0.20
  YS02001759YS02001757        0.44      0.44      0.53      0.01         0.01
  YS02001762YS02001759        0.41      0.41      0.44      0.01         0.01
  YS02001765YS02001762        0.37      0.37      0.41      0.01         0.01
  YS02001767YS02001765        0.34      0.34      0.37      0.01         0.01
  YS02001770YS02001767        0.33      0.33      0.34      0.33         0.24
  YS02001774YS02001770        0.32      0.32      0.39      0.01         0.01
  YS02001779YS02001774        0.23      0.23      0.39      0.01         0.01
  YS02001783YS02001784        0.31      0.33      0.31      0.45         0.31
  YS02001784YS02001785        0.22      0.31      0.22      0.64         0.22
  YS02001786YS02001788        0.01      0.23      0.01      0.54         0.01
  YS02001790YS02001791        0.01      0.01      0.01      0.30         0.01
  YS02001793JiankangQianchi        0.01      0.01      7.68      0.01         0.01
  YS02001882YS02001884        0.28      0.28      0.29      0.01         0.01
  YS02001884YS02001887        0.31      0.31      0.32      0.01         0.01
  YS02001887YS02001890        0.33      0.33      0.34      0.01         0.01
  YS02001890YS02001895        0.28      0.28      0.36      0.01         0.01
  YS02001895YS02001898        0.27      0.27      0.28      0.01         0.01
  YS02001898YS02001901        0.28      0.28      0.31      0.01         0.01
  YS02001901YS02001904        0.30      0.30      0.31      0.01         0.01
  YS02001904YS02001907        0.30      0.30      0.52      0.01         0.01
  YS02001907YS02006553        0.65      0.65      0.71      0.01         0.01
  YS02001910YS02001907        0.35      0.35      0.50      0.01         0.01
  YS02001915YS02001910        0.28      0.28      0.35      0.01         0.01
  YS02001918YS02001915        0.21      0.21      0.28      0.01         0.01
  YS02001920YS02001918        0.21      0.21      0.22      0.01         0.01
  YS02001923YS02001920        0.17      0.17      0.22      0.01         0.01
  YS02001926YS02001923        0.01      0.01      0.01      0.01         0.01
  YS02001929YS02001926        0.01      0.01      0.01      0.01         0.01
  YS02006553YS02006556        0.43      0.43      0.51      0.01         0.01
  YS02006556YS02006558        0.47      0.47      0.53      0.01         0.01
  YS02006558YS02006561        0.24      0.42      0.24      0.60         0.24
  YS02006561YS02001783        0.18      0.18      0.33      0.01         0.01
  YS02163301YS02001633        0.63      0.63      0.66      0.01         0.01
  YS02163601YS02164001        0.59      0.59      0.67      0.05         0.01
  YS02164001YS02001641        0.59      0.59      0.59      0.61         0.51
  
  
  ***************
  Pumping Summary
  ***************
  
  ---------------------------------------------------------------------------------------------------------
                                                  Min       Avg       Max     Total     Power    % Time Off
                        Percent   Number of      Flow      Flow      Flow    Volume     Usage    Pump Curve
  Pump                 Utilized   Start-Ups       LPS       LPS       LPS  10^6 ltr     Kw-hr    Low   High
  ---------------------------------------------------------------------------------------------------------
  CC-R1                   17.31          16      0.00    683.00    683.00     3.405     61.91    0.0   30.5
  CC-R2                   16.25          16      0.00    683.00    683.00     3.197     58.04    0.0   32.5
  CC-S1                   20.05          16      0.00    200.00    200.00     1.155      6.97    0.0    0.0
  CC-S2                   18.25          16      0.00    200.00    200.00     1.051      6.34    0.0    0.0
  JK-R1                    5.57          10      0.00   1000.00   1000.00     1.605     19.40    0.0    0.0
  JK-R2                    0.16           1      0.00   1000.00   1000.00     0.047      0.36    0.0    0.0
  JK-S                    15.37          15      0.00    300.00    300.00     1.328     18.71    0.0    0.0
  XR-1                    97.91           2      0.00     95.00     95.00     2.679      9.60    0.0    0.0
  XR-2                    93.94           2      0.00     95.00     95.00     2.570      8.76    0.0    0.0
  XR-3                     0.00           1      0.00     95.00     95.00     0.000      0.00    0.0    0.0
  XR-4                     0.00           1      0.00     95.00     95.00     0.000      0.00    0.0    0.0
  

  Analysis begun on:  Wed Nov  5 16:32:09 2025
  Analysis ended on:  Wed Nov  5 16:32:11 2025
  Total elapsed time: 00:00:02