
  EPA STORM WATER MANAGEMENT MODEL - VERSION 5.2 (Build 5.2.4)
  PYSWMM TOOLKIT API - VERSION v1.0 (2023-11-27)
  ------------------------------------------------------------

  WARNING 04: minimum elevation drop used for Conduit WS02004404WS02004405
  WARNING 03: negative offset ignored for Link YS02001904YS02001907
  
  ****************
  Analysis Options
  ****************
  Flow Units ............... LPS
  Process Models:
    Rainfall/Runoff ........ YES
    RDII ................... NO
    Snowmelt ............... NO
    Groundwater ............ NO
    Flow Routing ........... YES
    Ponding Allowed ........ NO
    Water Quality .......... NO
  Infiltration Method ...... HORTON
  Flow Routing Method ...... DYNWAVE
  Surcharge Method ......... EXTRAN
  Starting Date ............ 08/28/2015 08:00:00
  Ending Date .............. 08/28/2015 16:00:00
  Antecedent Dry Days ...... 8.0
  Report Time Step ......... 00:01:00
  Wet Time Step ............ 00:01:00
  Dry Time Step ............ 00:01:00
  Routing Time Step ........ 30.00 sec
  Variable Time Step ....... YES
  Maximum Trials ........... 8
  Number of Threads ........ 4
  Head Tolerance ........... 0.001500 m
  
  
  **************************        Volume         Depth
  Runoff Quantity Continuity     hectare-m            mm
  **************************     ---------       -------
  Initial LID Storage ......         0.049         1.488
  Total Precipitation ......         1.963        59.189
  Evaporation Loss .........         0.000         0.000
  Infiltration Loss ........         0.076         2.277
  Surface Runoff ...........         1.449        43.670
  Final Storage ............         0.489        14.748
  Continuity Error (%) .....        -0.030
  
  
  **************************        Volume        Volume
  Flow Routing Continuity        hectare-m      10^6 ltr
  **************************     ---------     ---------
  Dry Weather Inflow .......         0.602         6.020
  Wet Weather Inflow .......         1.449        14.486
  Groundwater Inflow .......         0.000         0.000
  RDII Inflow ..............         0.000         0.000
  External Inflow ..........         0.105         1.045
  External Outflow .........         1.817        18.165
  Flooding Loss ............         0.312         3.117
  Evaporation Loss .........         0.000         0.000
  Exfiltration Loss ........         0.000         0.000
  Initial Stored Volume ....         0.303         3.031
  Final Stored Volume ......         0.336         3.361
  Continuity Error (%) .....        -0.249
  
  
  *************************
  Highest Continuity Errors
  *************************
  Node YS02001583 (-10.31%)
  Node YS02001884 (4.99%)
  Node YS02001774 (1.54%)
  
  
  ***************************
  Time-Step Critical Elements
  ***************************
  Link WS02004404WS02004405 (37.49%)
  Link WS02006238WS02006235 (22.96%)
  Link YS02001791YS02001793 (9.63%)
  Link WS02006252WS02006251 (6.74%)
  Link WS02003066WSF200 (5.45%)
  
  
  ********************************
  Highest Flow Instability Indexes
  ********************************
  Link WS02006113WS02006111 (28)
  Link WS02006238WS02006235 (25)
  Link WS02006252WS02006251 (21)
  Link WS02006229WS02006228 (18)
  Link WS02006111WS02006112 (17)
  
  
  *********************************
  Most Frequent Nonconverging Nodes
  *********************************
  Node CC-1 (17.97%)
  Node CC-2 (17.97%)
  Node JK-1 (17.97%)
  Node JK-2 (17.97%)
  Node WSC (17.97%)
  
  
  *************************
  Routing Time Step Summary
  *************************
  Minimum Time Step           :     0.01 sec
  Average Time Step           :     3.53 sec
  Maximum Time Step           :     7.04 sec
  % of Time in Steady State   :     0.00
  Average Iterations per Step :     3.62
  % of Steps Not Converging   :    17.97
  Time Step Frequencies       :
     30.000 - 13.228 sec      :     0.00 %
     13.228 -  5.833 sec      :    26.74 %
      5.833 -  2.572 sec      :    33.48 %
      2.572 -  1.134 sec      :    26.00 %
      1.134 -  0.500 sec      :    13.78 %
  
  
  ***************************
  Subcatchment Runoff Summary
  ***************************
  
  ------------------------------------------------------------------------------------------------------------------------------
                            Total      Total      Total      Total     Imperv       Perv      Total       Total     Peak  Runoff
                           Precip      Runon       Evap      Infil     Runoff     Runoff     Runoff      Runoff   Runoff   Coeff
  Subcatchment                 mm         mm         mm         mm         mm         mm         mm    10^6 ltr      LPS
  ------------------------------------------------------------------------------------------------------------------------------
  sub60                     59.19       0.00       0.00       1.37      39.27       4.11      43.38        0.57   373.05   0.733
  sub61                     59.19       0.00       0.00       2.10      39.24       6.13      45.37        0.83   541.30   0.766
  sub62                     59.19       0.00       0.00       0.93      41.83       2.79      44.62        1.22   738.69   0.754
  sub63                     59.19       0.00       0.00       3.82      33.61      10.23      43.84        1.00   598.72   0.741
  sub64                     59.19       0.00       0.00       1.84      38.27       5.08      43.34        1.04   598.18   0.732
  sub65                     59.19       0.00       0.00       1.69      41.30       4.64      45.94        1.26   696.21   0.776
  sub66                     59.19       0.00       0.00       4.43      32.49       9.19      41.68        1.94   882.48   0.704
  sub67                     59.19       0.00       0.00       0.93      42.89       2.89      45.78        0.85   579.95   0.773
  sub68                     59.19       0.00       0.00       1.61      37.87       4.70      42.58        1.17   736.62   0.719
  sub69                     59.19       0.00       0.00       1.46      39.79       5.58      45.37        1.68   905.34   0.766
  sub70                     59.19       0.00       0.00       4.85      31.88      11.63      43.50        1.26   511.99   0.735
  sub71                     59.19       0.00       0.00       0.86      38.00       2.53      40.52        1.06   608.46   0.685
  sub72                     59.19       0.00       0.00       0.82      41.04       2.35      43.39        0.60   310.94   0.733
  

  ***********************
  LID Performance Summary
  ***********************

  --------------------------------------------------------------------------------------------------------------------
                                         Total      Evap     Infil   Surface    Drain    Initial     Final  Continuity
                                        Inflow      Loss      Loss   Outflow   Outflow   Storage   Storage       Error
  Subcatchment      LID Control             mm        mm        mm        mm        mm        mm        mm           %
  --------------------------------------------------------------------------------------------------------------------
  sub60             GreenRoof            59.19      0.00      0.00      0.00      0.00      7.05     66.27       -0.05
  sub61             GreenRoof            59.19      0.00      0.00      0.00      0.00      7.05     66.27       -0.05
  sub62             GreenRoof            59.19      0.00      0.00      0.00      0.00      7.05     66.27       -0.05
  sub63             GreenRoof            59.19      0.00      0.00      0.00      0.00      7.05     66.27       -0.05
  sub64             GreenRoof            59.19      0.00      0.00      0.00      0.00      7.05     66.27       -0.05
  sub65             GreenRoof            59.19      0.00      0.00      0.00      0.00      7.05     66.27       -0.05
  sub66             GreenRoof            59.19      0.00      0.00      0.00      0.00      7.05     66.27       -0.05
  sub67             GreenRoof            59.19      0.00      0.00      0.00      0.00      7.05     66.27       -0.05
  sub68             GreenRoof            59.19      0.00      0.00      0.00      0.00      7.05     66.27       -0.05
  sub69             GreenRoof            59.19      0.00      0.00      0.00      0.00      7.05     66.27       -0.05
  sub70             GreenRoof            59.19      0.00      0.00      0.00      0.00      7.05     66.27       -0.05
  sub71             GreenRoof            59.19      0.00      0.00      0.00      0.00      7.05     66.27       -0.05
  sub72             GreenRoof            59.19      0.00      0.00      0.00      0.00      7.05     66.27       -0.05
  
  ******************
  Node Depth Summary
  ******************
  
  ---------------------------------------------------------------------------------
                                 Average  Maximum  Maximum  Time of Max    Reported
                                   Depth    Depth      HGL   Occurrence   Max Depth
  Node                 Type       Meters   Meters   Meters  days hr:min      Meters
  ---------------------------------------------------------------------------------
  WS02001211           JUNCTION     0.60     0.64     5.48     0  02:33        0.64
  WS02001212           JUNCTION     0.34     0.38     5.45     0  02:32        0.38
  WS02001213           JUNCTION     0.53     0.65     5.41     0  02:32        0.65
  WS02003059           JUNCTION     0.59     0.72     5.40     0  02:32        0.72
  WS02003060           JUNCTION     0.30     0.45     5.38     0  02:31        0.45
  WS02003066           JUNCTION     0.16     0.30     5.85     0  02:30        0.30
  WS02003067           JUNCTION     0.43     0.70     6.02     0  02:30        0.70
  WS02003069           JUNCTION     0.34     0.51     5.10     0  02:31        0.51
  WS02003072           JUNCTION     0.40     0.58     4.95     0  02:32        0.58
  WS02003073           JUNCTION     0.23     0.35     4.41     0  02:32        0.35
  WS02004138           JUNCTION     0.13     0.14     7.39     0  00:29        0.14
  WS02004139           JUNCTION     0.54     0.58     5.49     0  02:34        0.58
  WS02004401           JUNCTION     0.52     0.85     6.85     0  02:28        0.85
  WS02004402           JUNCTION     0.56     0.88     6.84     0  02:28        0.88
  WS02004403           JUNCTION     0.58     0.89     6.82     0  02:28        0.89
  WS02004404           JUNCTION     0.65     0.96     6.81     0  02:28        0.96
  WS02004405           JUNCTION     0.65     0.96     6.81     0  02:28        0.96
  WS02004406           JUNCTION     0.66     0.96     6.79     0  02:29        0.96
  WS02004407           JUNCTION     0.14     0.30     6.61     0  02:29        0.30
  WS02004409           JUNCTION     0.31     0.67     6.44     0  02:29        0.67
  WS02004410           JUNCTION     0.34     0.68     6.40     0  02:29        0.68
  WS02004411           JUNCTION     0.37     0.69     6.37     0  02:30        0.69
  WS02004412           JUNCTION     0.39     0.70     6.34     0  02:30        0.70
  WS02004413           JUNCTION     0.54     0.86     6.33     0  02:30        0.86
  WS02006109           JUNCTION     0.58     1.08     7.69     0  02:46        1.03
  WS02006110           JUNCTION     0.58     1.05     7.64     0  02:46        0.96
  WS02006111           JUNCTION     0.14     0.29     6.99     0  02:22        0.29
  WS02006112           JUNCTION     0.67     1.09     6.97     0  02:58        1.07
  WS02006113           JUNCTION     0.22     0.46     7.35     0  03:05        0.46
  WS02006115           JUNCTION     0.41     0.75     6.89     0  02:24        0.75
  WS02006116           JUNCTION     0.49     0.83     6.87     0  02:28        0.83
  WS02006228           JUNCTION     0.57     1.09     7.74     0  02:46        1.07
  WS02006229           JUNCTION     0.54     1.11     7.80     0  02:52        1.06
  WS02006230           JUNCTION     0.54     1.24     7.99     0  01:53        1.19
  WS02006231           JUNCTION     0.35     1.05     8.17     0  02:57        0.91
  WS02006232           JUNCTION     0.48     1.21     8.25     0  02:45        1.09
  WS02006234           JUNCTION     0.41     1.24     8.40     0  02:45        1.12
  WS02006235           JUNCTION     0.45     1.36     8.52     0  02:45        1.25
  WS02006238           JUNCTION     0.48     1.40     8.54     0  02:45        1.30
  WS02006239           JUNCTION     0.44     1.43     8.64     0  02:57        1.43
  WS02006240           JUNCTION     0.41     1.49     8.78     0  02:57        1.49
  WS02006242           JUNCTION     0.47     1.55     8.82     0  02:57        1.55
  WS02006243           JUNCTION     0.40     1.48     8.90     0  02:57        1.48
  WS02006245           JUNCTION     0.40     1.51     9.00     0  02:57        1.51
  WS02006247           JUNCTION     0.41     1.42     8.92     0  02:57        1.42
  WS02006248           JUNCTION     0.39     1.10     8.69     0  02:45        1.10
  WS02006249           JUNCTION     0.41     1.09     8.69     0  01:52        1.09
  WS02006251           JUNCTION     0.41     1.36     9.03     0  01:52        1.12
  WS02006252           JUNCTION     0.26     1.50     9.74     0  00:00        0.70
  WS02006256           JUNCTION     1.09     2.35     9.28     0  00:00        2.35
  WSF200               JUNCTION     0.14     0.31     5.54     0  02:32        0.31
  YS02001580           JUNCTION     0.12     1.05     9.59     0  01:46        0.77
  YS02001583           JUNCTION     0.15     1.14     9.64     0  01:46        0.85
  YS02001586           JUNCTION     0.25     1.13     9.30     0  01:45        1.13
  YS02001590           JUNCTION     0.36     1.40     9.26     0  01:44        1.37
  YS02001593           JUNCTION     0.29     1.46     9.32     0  01:44        1.29
  YS02001596           JUNCTION     0.40     1.76     9.17     0  01:45        1.65
  YS02001600           JUNCTION     0.49     1.87     9.00     0  01:44        1.87
  YS02001601           JUNCTION     0.68     2.06     8.90     0  01:44        2.06
  YS02001602           JUNCTION     0.58     1.87     8.77     0  01:46        1.87
  YS02001605           JUNCTION     0.54     1.78     8.68     0  01:46        1.78
  YS02001607           JUNCTION     0.51     1.65     8.49     0  01:46        1.65
  YS02001610           JUNCTION     0.55     1.68     8.48     0  01:46        1.68
  YS02001613           JUNCTION     0.51     1.69     8.53     0  01:46        1.66
  YS02001616           JUNCTION     0.44     1.61     8.52     0  01:46        1.61
  YS02001619           JUNCTION     0.42     1.61     8.54     0  01:46        1.61
  YS02001622           JUNCTION     0.41     1.62     8.52     0  01:46        1.59
  YS02001625           JUNCTION     0.66     1.78     8.38     0  01:46        1.78
  YS02001629           JUNCTION     0.55     1.85     8.40     0  01:46        1.85
  YS02001633           JUNCTION     0.62     2.08     8.53     0  01:48        2.08
  YS02001641           JUNCTION     0.58     2.09     8.53     0  01:50        2.09
  YS02001644           JUNCTION     0.58     1.92     8.35     0  01:48        1.92
  YS02001647           JUNCTION     0.36     1.90     8.51     0  01:50        1.90
  YS02001649           JUNCTION     0.41     2.05     8.44     0  01:50        2.05
  YS02001652           JUNCTION     0.29     2.16     8.76     0  01:50        2.16
  YS02001655           JUNCTION     0.21     2.20     9.05     0  01:50        2.20
  YS02001658           JUNCTION     0.15     1.92     9.07     0  01:50        1.92
  YS02001661           JUNCTION     0.16     1.44     8.85     0  01:50        1.04
  YS02001664           JUNCTION     0.07     0.62     8.54     0  01:50        0.51
  YS02001745           JUNCTION     0.07     0.91     8.43     0  01:50        0.89
  YS02001748           JUNCTION     0.14     1.84     8.91     0  01:50        1.12
  YS02001751           JUNCTION     0.18     1.79     8.67     0  01:50        1.29
  YS02001754           JUNCTION     0.25     1.79     8.40     0  01:50        1.72
  YS02001757           JUNCTION     0.41     2.21     8.47     0  01:50        2.21
  YS02001759           JUNCTION     0.36     2.08     8.44     0  01:50        2.08
  YS02001762           JUNCTION     0.35     1.94     8.34     0  01:50        1.85
  YS02001765           JUNCTION     0.33     1.97     8.42     0  01:48        1.83
  YS02001767           JUNCTION     0.32     2.03     8.52     0  01:48        1.83
  YS02001770           JUNCTION     0.33     1.95     8.44     0  01:48        1.87
  YS02001774           JUNCTION     0.40     2.05     8.47     0  01:48        1.95
  YS02001779           JUNCTION     0.23     1.68     8.37     0  01:48        1.68
  YS02001783           JUNCTION     0.29     1.68     7.83     0  01:48        1.22
  YS02001784           JUNCTION     0.30     1.37     7.44     0  01:48        1.12
  YS02001786           JUNCTION     0.25     1.03     7.06     0  01:48        0.87
  YS02001788           JUNCTION     0.18     0.62     6.60     0  01:50        0.62
  YS02001790           JUNCTION     0.22     0.72     6.36     0  01:52        0.71
  YS02001791           JUNCTION     0.14     0.44     5.91     0  01:50        0.44
  YS02001793           JUNCTION     0.07     0.29     5.13     0  01:53        0.27
  YS02001882           JUNCTION     0.35     1.83     8.55     0  01:47        1.62
  YS02001884           JUNCTION     0.44     1.93     8.55     0  01:47        1.73
  YS02001887           JUNCTION     0.52     1.99     8.53     0  01:47        1.80
  YS02001890           JUNCTION     0.55     1.81     8.32     0  01:47        1.81
  YS02001895           JUNCTION     0.32     1.75     8.50     0  01:47        1.56
  YS02001898           JUNCTION     0.33     1.77     8.51     0  01:47        1.55
  YS02001901           JUNCTION     0.44     1.87     8.48     0  01:47        1.67
  YS02001904           JUNCTION     0.42     1.74     8.37     0  01:47        1.64
  YS02001907           JUNCTION     0.73     1.96     8.25     0  01:47        1.96
  YS02001910           JUNCTION     0.53     2.10     8.61     0  01:47        1.81
  YS02001915           JUNCTION     0.35     2.00     8.72     0  01:47        1.71
  YS02001918           JUNCTION     0.19     1.81     8.88     0  01:49        1.42
  YS02001920           JUNCTION     0.27     2.14     9.15     0  01:49        1.43
  YS02001923           JUNCTION     0.14     2.03     9.29     0  01:49        1.20
  YS02001926           JUNCTION     0.17     1.90     9.35     0  01:49        1.25
  YS02001929           JUNCTION     0.09     1.78     9.47     0  01:49        0.78
  YS02006553           JUNCTION     0.73     2.10     8.38     0  01:48        1.96
  YS02006556           JUNCTION     0.71     2.22     8.53     0  01:48        1.99
  YS02006558           JUNCTION     0.75     2.30     8.57     0  01:48        2.02
  YS02006561           JUNCTION     0.18     1.55     8.21     0  01:48        0.88
  YS02163301           JUNCTION     0.57     1.98     8.50     0  01:50        1.98
  YS02163601           JUNCTION     0.65     2.08     8.48     0  01:48        2.08
  YS02164001           JUNCTION     0.58     2.10     8.56     0  01:50        2.10
  CC-1                 OUTFALL      0.00     0.00     0.00     0  00:00        0.00
  CC-2                 OUTFALL      0.00     0.00     0.00     0  00:00        0.00
  JK-1                 OUTFALL      0.00     0.00     0.00     0  00:00        0.00
  JK-2                 OUTFALL      0.00     0.00     0.00     0  00:00        0.00
  WSC                  OUTFALL      0.23     0.35     1.02     0  02:33        0.35
  CC-storage           STORAGE      0.82     1.57     7.07     0  02:15        1.57
  JK-storage           STORAGE      3.13     4.24     5.04     0  02:00        4.22
  XR-storage           STORAGE      7.82     9.26     7.26     0  08:00        9.26
  
  
  *******************
  Node Inflow Summary
  *******************
  
  -------------------------------------------------------------------------------------------------
                                  Maximum  Maximum                  Lateral       Total        Flow
                                  Lateral    Total  Time of Max      Inflow      Inflow     Balance
                                   Inflow   Inflow   Occurrence      Volume      Volume       Error
  Node                 Type           LPS      LPS  days hr:min    10^6 ltr    10^6 ltr     Percent
  -------------------------------------------------------------------------------------------------
  WS02001211           JUNCTION      7.35   200.51     0  02:43       0.212        5.44       0.611
  WS02001212           JUNCTION      0.00   202.70     0  02:43           0        5.41       0.290
  WS02001213           JUNCTION      0.00   204.46     0  03:31           0        5.39       0.331
  WS02003059           JUNCTION      0.00   209.78     0  03:28           0        5.38       0.592
  WS02003060           JUNCTION     16.53   751.41     0  02:32       0.476        9.13       0.155
  WS02003066           JUNCTION      0.00   537.00     0  02:30           0         3.3       0.039
  WS02003067           JUNCTION      0.00   537.01     0  02:30           0        3.31       0.123
  WS02003069           JUNCTION      0.32   751.19     0  02:31     0.00922        9.12       0.164
  WS02003072           JUNCTION      0.00   751.15     0  02:31           0         9.1       0.223
  WS02003073           JUNCTION      1.82   752.94     0  02:32      0.0524        9.13       0.230
  WS02004138           JUNCTION      0.00   380.00     0  00:00           0        5.25       0.053
  WS02004139           JUNCTION      0.32   191.16     0  00:29     0.00924        5.26       0.509
  WS02004401           JUNCTION      0.00   540.46     0  02:28           0        3.41       0.292
  WS02004402           JUNCTION      0.00   539.64     0  02:28           0         3.4       0.298
  WS02004403           JUNCTION      0.00   539.53     0  02:28           0        3.39       0.291
  WS02004404           JUNCTION      0.16   538.98     0  02:28     0.00467        3.38       0.261
  WS02004405           JUNCTION      0.04   539.14     0  02:28      0.0011        3.37       0.348
  WS02004406           JUNCTION      0.00   539.53     0  02:28           0        3.36       0.608
  WS02004407           JUNCTION      0.00   538.58     0  02:29           0        3.34       0.029
  WS02004409           JUNCTION      0.00   538.15     0  02:29           0        3.34       0.072
  WS02004410           JUNCTION      0.00   537.81     0  02:29           0        3.34       0.121
  WS02004411           JUNCTION      0.00   537.44     0  02:29           0        3.33       0.158
  WS02004412           JUNCTION      0.00   537.27     0  02:30           0        3.33       0.215
  WS02004413           JUNCTION      0.00   537.21     0  02:30           0        3.32       0.384
  WS02006109           JUNCTION      1.23   551.47     0  01:53      0.0354        3.45       0.239
  WS02006110           JUNCTION      0.00   551.61     0  01:53           0        3.44       0.183
  WS02006111           JUNCTION      0.00   560.59     0  02:27           0        3.43       0.020
  WS02006112           JUNCTION      0.00   543.22     0  02:18           0        3.43       0.510
  WS02006113           JUNCTION      0.00   568.01     0  01:53           0        3.43       0.049
  WS02006115           JUNCTION      0.00   549.28     0  02:19           0        3.41       0.182
  WS02006116           JUNCTION      0.00   540.73     0  02:27           0        3.41       0.077
  WS02006228           JUNCTION      0.00   551.16     0  01:53           0        3.42       0.103
  WS02006229           JUNCTION      0.00   550.17     0  01:53           0        3.42       0.150
  WS02006230           JUNCTION     10.28   597.81     0  02:57       0.296        3.43       0.131
  WS02006231           JUNCTION      0.00   577.96     0  02:57           0        3.13      -0.107
  WS02006232           JUNCTION      0.00   576.95     0  02:43           0        3.14       0.338
  WS02006234           JUNCTION      0.00   573.43     0  02:57           0        3.13      -0.285
  WS02006235           JUNCTION      0.00   565.78     0  02:57           0        3.21       0.273
  WS02006238           JUNCTION      0.00   419.84     0  02:55           0        2.22      -0.102
  WS02006239           JUNCTION      0.00   420.25     0  02:35           0        2.18      -0.039
  WS02006240           JUNCTION      0.00   418.30     0  02:35           0        2.14      -0.056
  WS02006242           JUNCTION      0.00   418.52     0  02:35           0        2.11      -0.148
  WS02006243           JUNCTION      0.00   418.16     0  02:35           0        2.09      -0.141
  WS02006245           JUNCTION      0.00   416.96     0  02:35           0         2.1       0.502
  WS02006247           JUNCTION      0.00   417.84     0  03:10           0         2.1      -0.012
  WS02006248           JUNCTION      0.00   417.80     0  03:10           0        2.09      -0.219
  WS02006249           JUNCTION      0.00   460.58     0  03:20           0        2.35       0.712
  WS02006251           JUNCTION      0.08   406.63     0  01:52     0.00222        2.36       0.015
  WS02006252           JUNCTION      0.00   400.00     0  00:00           0        2.34      -0.341
  WS02006256           JUNCTION      0.00   300.00     0  00:00           0        1.49      -0.676
  WSF200               JUNCTION      0.00   537.01     0  02:31           0         3.3       0.015
  YS02001580           JUNCTION      0.00   147.66     0  01:46           0     0.00463       4.021
  YS02001583           JUNCTION      0.00   250.46     0  01:46           0      0.0151      -9.345
  YS02001586           JUNCTION    511.99   512.05     0  01:53        1.26        1.27       0.121
  YS02001590           JUNCTION      0.00   318.12     0  02:01           0        1.12      -0.042
  YS02001593           JUNCTION      0.00   318.00     0  01:57           0        1.12      -0.003
  YS02001596           JUNCTION      0.00   318.03     0  01:54           0        1.12      -0.011
  YS02001600           JUNCTION      0.00   318.06     0  02:04           0        1.12      -0.002
  YS02001601           JUNCTION    905.34  1222.82     0  01:51        1.68         2.8       0.010
  YS02001602           JUNCTION      0.00   557.66     0  01:46           0        1.98       0.019
  YS02001605           JUNCTION      0.00   557.68     0  01:46           0        1.89       0.008
  YS02001607           JUNCTION      0.00   557.60     0  01:46           0        1.89       0.097
  YS02001610           JUNCTION      0.00   549.18     0  01:46           0         1.9       0.104
  YS02001613           JUNCTION      0.00   556.35     0  01:46           0        1.62       0.084
  YS02001616           JUNCTION      0.00   575.21     0  01:46           0        1.62       0.019
  YS02001619           JUNCTION    882.48   994.09     0  01:46        1.94        3.55      -0.009
  YS02001622           JUNCTION      0.00  1011.25     0  01:46           0        3.54      -0.007
  YS02001625           JUNCTION      0.00  1000.15     0  01:53           0        3.57       0.239
  YS02001629           JUNCTION      0.00   959.01     0  01:46           0        3.03       0.012
  YS02001633           JUNCTION    696.41  1446.75     0  01:48        1.27        4.26       0.073
  YS02001641           JUNCTION      0.00  1447.84     0  01:48           0        4.23       0.059
  YS02001644           JUNCTION    598.22  1915.69     0  01:48        1.04        5.27       0.057
  YS02001647           JUNCTION      0.00  1915.98     0  01:48           0        5.22       0.008
  YS02001649           JUNCTION      0.00  2166.09     0  01:48           0        6.22       0.005
  YS02001652           JUNCTION      0.00   758.23     0  01:51           0           1      -0.124
  YS02001655           JUNCTION      0.15   758.81     0  01:51     0.00443           1      -0.073
  YS02001658           JUNCTION      0.00   758.14     0  01:51           0       0.995      -0.070
  YS02001661           JUNCTION      0.00   793.50     0  01:50           0       0.996       0.018
  YS02001664           JUNCTION    598.72   598.72     0  01:50       0.995       0.995      -0.016
  YS02001745           JUNCTION    373.06   565.52     0  01:49        0.57       0.572       0.263
  YS02001748           JUNCTION      0.04   545.75     0  01:49      0.0013       0.575      -0.507
  YS02001751           JUNCTION      0.01   520.49     0  01:50    0.000317       0.586       0.069
  YS02001754           JUNCTION      0.26   522.44     0  01:50     0.00749       0.602      -0.213
  YS02001757           JUNCTION      0.00  3293.59     0  01:50           0        8.88       0.028
  YS02001759           JUNCTION    541.34  1302.37     0  01:49       0.834        2.07      -0.017
  YS02001762           JUNCTION      0.00   760.26     0  01:49           0        1.23       0.003
  YS02001765           JUNCTION      0.00   756.89     0  01:49           0        1.23       0.004
  YS02001767           JUNCTION      0.54   753.76     0  01:49      0.0154        1.23      -0.002
  YS02001770           JUNCTION    738.84   743.95     0  01:49        1.23        1.27      -0.011
  YS02001774           JUNCTION      0.00   505.58     0  01:48           0      0.0716       1.561
  YS02001779           JUNCTION      0.01   508.73     0  01:48    0.000144      0.0279      -3.001
  YS02001783           JUNCTION      0.00  1155.55     0  01:50           0        3.28       0.005
  YS02001784           JUNCTION      1.06  1157.58     0  01:50      0.0305        3.31       0.015
  YS02001786           JUNCTION      0.06  1156.86     0  01:50     0.00162        3.31       0.020
  YS02001788           JUNCTION      0.07  1157.31     0  01:50     0.00204        3.32       0.009
  YS02001790           JUNCTION      0.15  1167.13     0  01:51     0.00446        3.32       0.025
  YS02001791           JUNCTION      0.00  1279.19     0  01:54           0        3.32      -0.023
  YS02001793           JUNCTION      0.00  1234.99     0  01:50           0        3.32       0.005
  YS02001882           JUNCTION      0.00    75.45     0  01:47           0      0.0126       4.045
  YS02001884           JUNCTION      0.00   133.30     0  01:47           0      0.0482       5.252
  YS02001887           JUNCTION    580.40   580.88     0  01:50       0.864       0.898       0.480
  YS02001890           JUNCTION      0.00   581.08     0  01:49           0       0.857       0.577
  YS02001895           JUNCTION      0.00   540.69     0  01:48           0       0.844       0.188
  YS02001898           JUNCTION      0.00   540.68     0  01:48           0       0.842       0.004
  YS02001901           JUNCTION      0.00   539.76     0  01:48           0       0.845       0.378
  YS02001904           JUNCTION      0.00   539.28     0  01:48           0        0.85       0.305
  YS02001907           JUNCTION      0.00  1580.65     0  01:50           0        2.58       0.689
  YS02001910           JUNCTION      0.00  1057.01     0  01:50           0        1.74       0.407
  YS02001915           JUNCTION    608.48  1056.54     0  01:50        1.06        1.79       0.079
  YS02001918           JUNCTION      0.00   567.34     0  01:48           0        0.76       0.020
  YS02001920           JUNCTION      2.87   560.53     0  01:48      0.0827       0.738       0.134
  YS02001923           JUNCTION      0.04   690.82     0  01:48     0.00109       0.639      -0.105
  YS02001926           JUNCTION      0.05  1014.61     0  01:48      0.0015       0.617      -0.403
  YS02001929           JUNCTION    310.94   956.82     0  01:49       0.597       0.602      -0.184
  YS02006553           JUNCTION      0.00   791.41     0  02:03           0        2.13       0.553
  YS02006556           JUNCTION      0.00   791.38     0  02:03           0        2.14       0.358
  YS02006558           JUNCTION    737.50  1180.22     0  01:48         1.2        3.31       0.103
  YS02006561           JUNCTION      0.00  1179.77     0  01:48           0        3.28      -0.001
  YS02163301           JUNCTION      0.00   925.76     0  01:47           0        3.02       0.042
  YS02163601           JUNCTION      0.11  1446.52     0  01:48     0.00317        4.23       0.108
  YS02164001           JUNCTION      0.00  1446.81     0  01:48           0        4.23       0.046
  CC-1                 OUTFALL       0.00   683.00     0  00:00           0        3.74       0.000
  CC-2                 OUTFALL       0.00   683.00     0  00:00           0        3.53       0.000
  JK-1                 OUTFALL       0.00  1000.00     0  00:00           0        1.73       0.000
  JK-2                 OUTFALL       0.00  1000.00     0  00:00           0      0.0484       0.000
  WSC                  OUTFALL       0.00   752.87     0  02:33           0        9.11       0.000
  CC-storage           STORAGE       0.00  3292.19     0  01:50           0        11.1      -0.236
  JK-storage           STORAGE       0.00  1234.55     0  01:50           0        3.47       0.203
  XR-storage           STORAGE     200.00   200.00     0  00:00        5.76        6.36       0.001
  
  
  **********************
  Node Surcharge Summary
  **********************
  
  Surcharging occurs when water rises above the top of the highest conduit.
  ---------------------------------------------------------------------
                                               Max. Height   Min. Depth
                                   Hours       Above Crown    Below Rim
  Node                 Type      Surcharged         Meters       Meters
  ---------------------------------------------------------------------
  WS02006109           JUNCTION        1.41          0.256        1.564
  WS02006110           JUNCTION        0.89          0.140        1.710
  WS02006112           JUNCTION        0.86          0.087        1.593
  WS02006228           JUNCTION        1.41          0.260        1.940
  WS02006229           JUNCTION        1.41          0.309        2.141
  WS02006230           JUNCTION        0.90          0.163        1.407
  WS02006231           JUNCTION        0.99          0.338        1.192
  WS02006232           JUNCTION        1.43          0.506        0.974
  WS02006234           JUNCTION        1.25          0.523        0.717
  WS02006235           JUNCTION        1.39          0.647        0.643
  WS02006238           JUNCTION        1.42          0.678        0.752
  WS02006239           JUNCTION        1.40          0.687        0.603
  WS02006240           JUNCTION        1.41          0.779        0.611
  WS02006242           JUNCTION        1.42          0.820        0.000
  WS02006243           JUNCTION        1.40          0.770        0.000
  WS02006245           JUNCTION        1.40          0.800        0.050
  WS02006247           JUNCTION        1.40          0.712        0.048
  WS02006248           JUNCTION        1.39          0.380        0.000
  WS02006249           JUNCTION        1.39          0.390        0.000
  WS02006251           JUNCTION        1.03          0.328        0.852
  WS02006252           JUNCTION        1.58          1.100        0.000
  WS02006256           JUNCTION        3.92          2.050        0.000
  YS02001580           JUNCTION        0.45          0.450        0.000
  YS02001583           JUNCTION        0.46          0.500        0.000
  YS02001586           JUNCTION        0.59          0.510        0.000
  YS02001590           JUNCTION        0.65          0.750        0.000
  YS02001593           JUNCTION        0.66          0.840        0.000
  YS02001596           JUNCTION        0.75          1.026        0.044
  YS02001600           JUNCTION        0.89          1.190        0.000
  YS02001601           JUNCTION        1.28          1.440        0.000
  YS02001602           JUNCTION        1.13          1.270        0.000
  YS02001605           JUNCTION        1.08          1.180        0.000
  YS02001607           JUNCTION        0.63          0.646        0.034
  YS02001610           JUNCTION        0.65          0.680        0.000
  YS02001613           JUNCTION        0.62          0.690        0.010
  YS02001616           JUNCTION        0.59          0.610        0.000
  YS02001619           JUNCTION        0.57          0.610        0.000
  YS02001622           JUNCTION        0.56          0.620        0.000
  YS02001625           JUNCTION        0.73          0.780        0.000
  YS02001629           JUNCTION        0.52          0.470        0.000
  YS02001633           JUNCTION        0.76          1.060        0.000
  YS02001641           JUNCTION        0.70          1.089        0.011
  YS02001644           JUNCTION        0.67          0.920        0.000
  YS02001647           JUNCTION        0.49          0.900        0.000
  YS02001649           JUNCTION        0.59          1.050        0.000
  YS02001652           JUNCTION        0.41          1.130        0.000
  YS02001655           JUNCTION        0.26          1.200        0.000
  YS02001658           JUNCTION        0.09          0.923        0.377
  YS02001661           JUNCTION        0.01          0.373        1.017
  YS02001748           JUNCTION        0.01          0.757        0.433
  YS02001751           JUNCTION        0.16          0.791        0.409
  YS02001754           JUNCTION        0.32          0.740        0.410
  YS02001757           JUNCTION        0.66          1.210        0.000
  YS02001759           JUNCTION        0.56          1.080        0.130
  YS02001762           JUNCTION        0.53          0.942        0.208
  YS02001765           JUNCTION        0.48          0.969        0.131
  YS02001767           JUNCTION        0.45          1.030        0.000
  YS02001770           JUNCTION        0.42          0.920        0.000
  YS02001774           JUNCTION        0.52          1.050        0.000
  YS02001779           JUNCTION        0.31          0.680        0.000
  YS02001783           JUNCTION        0.40          0.885        0.715
  YS02001784           JUNCTION        0.38          0.573        0.917
  YS02001786           JUNCTION        0.28          0.227        1.203
  YS02001882           JUNCTION        0.35          0.830        0.000
  YS02001884           JUNCTION        0.36          0.870        0.000
  YS02001887           JUNCTION        0.39          0.943        0.007
  YS02001890           JUNCTION        0.40          0.760        0.000
  YS02001895           JUNCTION        0.34          0.750        0.000
  YS02001898           JUNCTION        0.33          0.740        0.000
  YS02001901           JUNCTION        0.37          0.868        0.002
  YS02001904           JUNCTION        0.37          0.741        0.109
  YS02001907           JUNCTION        0.57          0.950        0.000
  YS02001910           JUNCTION        0.42          1.100        0.000
  YS02001915           JUNCTION        0.34          1.000        0.000
  YS02001918           JUNCTION        0.27          0.810        0.000
  YS02001920           JUNCTION        0.28          1.140        0.000
  YS02001923           JUNCTION        0.01          0.820        0.000
  YS02001926           JUNCTION        0.02          0.900        0.000
  YS02001929           JUNCTION        0.01          0.780        0.000
  YS02006553           JUNCTION        0.59          1.101        0.089
  YS02006556           JUNCTION        0.50          1.181        0.169
  YS02006558           JUNCTION        0.49          1.199        0.201
  YS02006561           JUNCTION        0.24          0.752        0.398
  YS02163301           JUNCTION        0.74          0.980        0.050
  YS02163601           JUNCTION        0.78          1.080        0.000
  YS02164001           JUNCTION        0.71          1.100        0.000
  
  
  *********************
  Node Flooding Summary
  *********************
  
  Flooding refers to all water that overflows a node, whether it ponds or not.
  --------------------------------------------------------------------------
                                                             Total   Maximum
                                 Maximum   Time of Max       Flood    Ponded
                        Hours       Rate    Occurrence      Volume     Depth
  Node                 Flooded       LPS   days hr:min    10^6 ltr    Meters
  --------------------------------------------------------------------------
  WS02006242              0.01      2.82      0  02:57       0.000     0.000
  WS02006243              0.01      3.53      0  02:57       0.000     0.000
  WS02006248              0.01     17.61      0  02:57       0.000     0.000
  WS02006249              1.01     97.38      0  01:52       0.247     0.000
  WS02006252              0.01    245.63      0  00:00       0.000     0.000
  WS02006256              1.38    293.19      0  00:00       0.458     0.000
  YS02001580              0.01     96.90      0  01:46       0.000     0.000
  YS02001583              0.01    220.38      0  01:46       0.000     0.000
  YS02001586              0.35    194.50      0  01:53       0.140     0.000
  YS02001590              0.01     73.99      0  01:44       0.000     0.000
  YS02001593              0.01     17.92      0  01:44       0.000     0.000
  YS02001600              0.01      3.42      0  01:45       0.000     0.000
  YS02001601              0.52    824.92      0  01:51       0.816     0.000
  YS02001602              0.42     61.97      0  01:54       0.085     0.000
  YS02001605              0.01      3.83      0  01:46       0.000     0.000
  YS02001610              0.36    381.36      0  01:54       0.291     0.000
  YS02001616              0.01     28.89      0  01:46       0.000     0.000
  YS02001619              0.01     15.49      0  01:46       0.000     0.000
  YS02001622              0.01    302.24      0  01:46       0.001     0.000
  YS02001625              0.33    999.91      0  01:53       0.557     0.000
  YS02001629              0.06    321.44      0  01:46       0.016     0.000
  YS02001633              0.01      4.56      0  01:48       0.000     0.000
  YS02001644              0.05    360.58      0  01:50       0.039     0.000
  YS02001647              0.01     11.48      0  01:50       0.000     0.000
  YS02001649              0.01     63.59      0  01:50       0.000     0.000
  YS02001652              0.01     82.93      0  01:50       0.000     0.000
  YS02001655              0.01    221.25      0  02:05       0.000     0.000
  YS02001757              0.01     11.85      0  01:50       0.000     0.000
  YS02001767              0.01    185.27      0  01:48       0.000     0.000
  YS02001770              0.01    343.09      0  01:48       0.001     0.000
  YS02001774              0.01     38.75      0  01:48       0.000     0.000
  YS02001779              0.03    444.90      0  01:48       0.010     0.000
  YS02001882              0.01     71.96      0  01:47       0.000     0.000
  YS02001884              0.01     38.42      0  01:47       0.000     0.000
  YS02001890              0.06    103.78      0  01:47       0.008     0.000
  YS02001895              0.01     76.18      0  01:47       0.000     0.000
  YS02001898              0.01    204.47      0  01:47       0.000     0.000
  YS02001907              0.22   1167.94      0  01:50       0.438     0.000
  YS02001910              0.01     14.82      0  01:47       0.000     0.000
  YS02001915              0.01    199.50      0  01:47       0.000     0.000
  YS02001918              0.01    277.25      0  01:49       0.004     0.000
  YS02001920              0.01    112.07      0  01:49       0.000     0.000
  YS02001923              0.01    191.42      0  01:49       0.001     0.000
  YS02001926              0.01    319.68      0  01:49       0.002     0.000
  YS02001929              0.01    656.81      0  01:49       0.002     0.000
  YS02163601              0.01      9.85      0  01:48       0.000     0.000
  YS02164001              0.01      2.64      0  01:50       0.000     0.000
  
  
  **********************
  Storage Volume Summary
  **********************
  
  ------------------------------------------------------------------------------------------------
                         Average    Avg   Evap  Exfil     Maximum    Max    Time of Max    Maximum
                          Volume   Pcnt   Pcnt   Pcnt      Volume   Pcnt     Occurrence    Outflow
  Storage Unit           1000 m³   Full   Loss   Loss     1000 m³   Full    days hr:min        LPS
  ------------------------------------------------------------------------------------------------
  CC-storage               2.281   35.6    0.0    0.0       4.366   68.1       0  02:15    1783.53
  JK-storage               0.157   53.9    0.0    0.0       0.213   73.1       0  02:00    2300.00
  XR-storage               0.939   65.2    0.0    0.0       1.111   77.2       0  08:00     380.00
  
  
  ***********************
  Outfall Loading Summary
  ***********************
  
  -----------------------------------------------------------
                         Flow       Avg       Max       Total
                         Freq      Flow      Flow      Volume
  Outfall Node           Pcnt       LPS       LPS    10^6 ltr
  -----------------------------------------------------------
  CC-1                  33.51    683.00    683.00       3.739
  CC-2                  31.44    683.00    683.00       3.533
  JK-1                  14.05   1000.00   1000.00       1.733
  JK-2                   0.26   1000.00   1000.00       0.048
  WSC                   99.93    385.97    752.87       9.112
  -----------------------------------------------------------
  System                35.84   3751.97   3366.23      18.165
  
  
  ********************
  Link Flow Summary
  ********************
  
  -----------------------------------------------------------------------------
                                 Maximum  Time of Max   Maximum    Max/    Max/
                                  |Flow|   Occurrence   |Veloc|    Full    Full
  Link                 Type          LPS  days hr:min     m/sec    Flow   Depth
  -----------------------------------------------------------------------------
  1                    CONDUIT    752.87     0  02:33      3.08    0.26    0.35
  WS02001211WS02001212 CONDUIT    202.70     0  02:43      0.54    0.15    0.51
  WS02001212WS02001213 CONDUIT    204.46     0  03:31      1.04    0.32    0.36
  WS02001213WS02003059 CONDUIT    209.78     0  03:28      0.47    0.35    0.67
  WS02003059WS02003060 CONDUIT    217.14     0  03:28      0.67    0.14    0.58
  WS02003060WS02003069 CONDUIT    750.87     0  02:31      1.77    0.29    0.40
  WS02003066WSF200     CONDUIT    537.01     0  02:31      2.74    0.09    0.23
  WS02003067WS02003066 CONDUIT    537.00     0  02:30      1.21    0.17    0.42
  WS02003069WS02003072 CONDUIT    751.15     0  02:31      1.51    0.36    0.45
  WS02003072WS02003073 CONDUIT    751.12     0  02:32      1.60    1.62    0.43
  WS02004138WS02004139 CONDUIT    190.84     0  00:29      2.17    0.04    0.33
  WS02004139WS02001211 CONDUIT    193.17     0  02:43      0.54    0.24    0.47
  WS02004401WS02004402 CONDUIT    539.64     0  02:28      0.97    0.65    0.86
  WS02004402WS02004403 CONDUIT    539.53     0  02:28      0.97    0.78    0.88
  WS02004403WS02004404 CONDUIT    538.82     0  02:28      0.92    0.39    0.93
  WS02004404WS02004405 CONDUIT    539.10     0  02:28      1.08    5.28    0.96
  WS02004405WS02004406 CONDUIT    539.53     0  02:28      0.99    1.06    0.96
  WS02004406WS02004407 CONDUIT    538.58     0  02:29      1.04    0.24    0.63
  WS02004407WS02004409 CONDUIT    538.15     0  02:29      1.57    0.19    0.48
  WS02004409WS02004410 CONDUIT    537.81     0  02:29      1.05    0.70    0.67
  WS02004410WS02004411 CONDUIT    537.44     0  02:29      1.00    0.73    0.69
  WS02004411WS02004412 CONDUIT    537.27     0  02:30      0.95    0.76    0.69
  WS02004412WS02004413 CONDUIT    537.21     0  02:30      0.82    0.36    0.78
  WS02004413WS02003067 CONDUIT    537.01     0  02:30      1.11    0.23    0.59
  WS02006109WS02006110 CONDUIT    551.61     0  01:53      1.10    1.06    1.00
  WS02006110WS02006113 CONDUIT    568.01     0  01:53      1.37    0.52    0.78
  WS02006111WS02006112 CONDUIT    543.22     0  02:18      1.82    0.26    0.67
  WS02006112WS02006115 CONDUIT    549.28     0  02:19      0.88    0.32    0.87
  WS02006113WS02006111 CONDUIT    560.59     0  02:27      2.47    0.67    0.46
  WS02006115WS02006116 CONDUIT    540.73     0  02:27      1.13    0.69    0.76
  WS02006116WS02004401 CONDUIT    540.46     0  02:28      0.98    0.74    0.84
  WS02006228WS02006109 CONDUIT    550.24     0  01:53      1.09    2.40    1.00
  WS02006229WS02006228 CONDUIT    551.16     0  01:53      1.15    1.83    1.00
  WS02006230WS02006229 CONDUIT    550.17     0  01:53      1.43   12.24    1.00
  WS02006231WS02006230 CONDUIT    587.53     0  02:57      1.59    8.91    1.00
  WS02006232WS02006231 CONDUIT    577.96     0  02:57      1.51    1.21    1.00
  WS02006234WS02006232 CONDUIT    576.95     0  02:43      1.50    1.17    1.00
  WS02006235WS02006234 CONDUIT    573.43     0  02:57      1.49    6.05    1.00
  WS02006238WS02006235 CONDUIT    421.41     0  02:55      1.56    0.94    1.00
  WS02006239WS02006238 CONDUIT    419.84     0  02:55      1.11    1.34    1.00
  WS02006240WS02006239 CONDUIT    420.25     0  02:35      1.24    1.32    1.00
  WS02006242WS02006240 CONDUIT    418.30     0  02:35      1.12    1.66    1.00
  WS02006243WS02006242 CONDUIT    418.52     0  02:35      1.39    0.89    1.00
  WS02006245WS02006243 CONDUIT    418.16     0  02:35      1.45    1.24    1.00
  WS02006247WS02006245 CONDUIT    416.96     0  02:35      1.44    3.31    1.00
  WS02006248WS02006247 CONDUIT    417.84     0  03:10      1.45    0.91    1.00
  WS02006249WS02006248 CONDUIT    417.80     0  03:10      1.37    2.29    1.00
  WS02006251WS02006249 CONDUIT    460.58     0  03:20      1.99    1.33    1.00
  WS02006252WS02006251 CONDUIT    406.55     0  01:52     25.11    1.49    1.00
  WS02006256WS02006235 CONDUIT    289.22     0  01:44      4.23    3.06    1.00
  WSF200WS02003060     CONDUIT    537.07     0  02:30      1.76    0.12    0.32
  YS02001580YS02001583 CONDUIT    147.66     0  01:46      0.84    0.57    1.00
  YS02001583YS02001586 CONDUIT    190.43     0  01:46      0.84    0.29    1.00
  YS02001586YS02001590 CONDUIT    318.12     0  02:01      1.28    0.56    1.00
  YS02001590YS02001593 CONDUIT    318.00     0  01:57      1.12    2.00    1.00
  YS02001593YS02001596 CONDUIT    318.03     0  01:54      1.74    0.50    1.00
  YS02001596YS02001600 CONDUIT    318.06     0  02:04      1.20    0.62    1.00
  YS02001600YS02001601 CONDUIT    317.90     0  01:52      1.12    0.55    1.00
  YS02001601YS02001602 CONDUIT    557.66     0  01:46      1.97    2.01    1.00
  YS02001602YS02001605 CONDUIT    557.68     0  01:46      1.97   11.80    1.00
  YS02001605YS02001607 CONDUIT    557.60     0  01:46      1.97    3.06    1.00
  YS02001607YS02001610 CONDUIT    549.18     0  01:46      0.70    0.52    1.00
  YS02001610YS02001613 CONDUIT    556.35     0  01:46      0.71    0.64    1.00
  YS02001613YS02001616 CONDUIT    575.21     0  01:46      0.74    0.49    1.00
  YS02001616YS02001619 CONDUIT    534.95     0  01:46      0.68    0.93    1.00
  YS02001619YS02001622 CONDUIT   1011.25     0  01:46      1.29    1.49    1.00
  YS02001622YS02001625 CONDUIT    958.96     0  01:46      1.22    0.51    1.00
  YS02001625YS02001629 CONDUIT    959.01     0  01:46      1.22    0.46    1.00
  YS02001629YS02163301 CONDUIT    925.76     0  01:47      1.18    1.14    1.00
  YS02001633YS02163601 CONDUIT   1446.41     0  01:48      1.84    1.52    1.00
  YS02001641YS02001644 CONDUIT   1448.16     0  01:48      1.84    4.68    1.00
  YS02001644YS02001647 CONDUIT   1915.98     0  01:48      2.45    1.13    1.00
  YS02001647YS02001649 CONDUIT   1893.22     0  01:48      2.41    1.00    1.00
  YS02001649YS02001757 CONDUIT   2166.85     0  01:48      2.76    1.31    1.00
  YS02001652YS02001649 CONDUIT    758.79     0  01:51      0.97    0.38    1.00
  YS02001655YS02001652 CONDUIT    758.23     0  01:51      1.42    0.37    1.00
  YS02001658YS02001655 CONDUIT    758.65     0  01:51      2.00    0.32    1.00
  YS02001661YS02001658 CONDUIT    758.14     0  01:51      2.41    0.30    1.00
  YS02001664YS02001661 CONDUIT    793.50     0  01:50      2.42    0.25    0.80
  YS02001745YS02001748 CONDUIT    534.35     0  01:50      2.28    0.21    0.96
  YS02001748YS02001751 CONDUIT    520.48     0  01:50      1.80    0.26    1.00
  YS02001751YS02001754 CONDUIT    522.18     0  01:50      1.50    0.25    1.00
  YS02001754YS02001757 CONDUIT    524.02     0  01:50      0.67    0.21    1.00
  YS02001757CaochengTiaoxuchi CONDUIT   3292.19     0  01:50      4.19    1.42    1.00
  YS02001759YS02001757 CONDUIT   1304.02     0  01:49      1.66    0.93    1.00
  YS02001762YS02001759 CONDUIT    763.08     0  01:49      0.97    0.88    1.00
  YS02001765YS02001762 CONDUIT    760.26     0  01:49      0.97    0.71    1.00
  YS02001767YS02001765 CONDUIT    756.89     0  01:49      0.96    0.95    1.00
  YS02001770YS02001767 CONDUIT    753.22     0  01:49      0.96    2.98    1.00
  YS02001774YS02001770 CONDUIT    505.58     0  01:48      0.64    0.32    1.00
  YS02001779YS02001774 CONDUIT    508.72     0  01:48      0.66    0.26    1.00
  YS02001783YS02001784 CONDUIT   1156.52     0  01:50      2.30    1.59    1.00
  YS02001784YS02001785 CONDUIT   1156.81     0  01:50      2.30    2.69    1.00
  YS02001786YS02001788 CONDUIT   1157.24     0  01:50      2.48    2.23    0.89
  YS02001788YS02001790 CONDUIT   1166.97     0  01:51      2.72    0.86    0.84
  YS02001790YS02001791 CONDUIT   1279.19     0  01:54      3.43    1.39    0.70
  YS02001791YS02001793 CONDUIT   1234.99     0  01:50      6.76    0.53    0.44
  YS02001793JiankangQianchi CONDUIT   1234.55     0  01:50      2.48    0.10    0.65
  YS02001882YS02001884 CONDUIT     75.45     0  01:47      0.14    0.09    1.00
  YS02001884YS02001887 CONDUIT    133.30     0  01:47      0.17    0.18    1.00
  YS02001887YS02001890 CONDUIT    581.08     0  01:49      0.74    0.99    1.00
  YS02001890YS02001895 CONDUIT    540.69     0  01:48      0.69    0.25    1.00
  YS02001895YS02001898 CONDUIT    540.68     0  01:48      0.69    0.94    1.00
  YS02001898YS02001901 CONDUIT    539.76     0  01:48      0.69    0.35    1.00
  YS02001901YS02001904 CONDUIT    539.28     0  01:48      0.69    0.84    1.00
  YS02001904YS02001907 CONDUIT    539.88     0  01:48      0.69    0.19    1.00
  YS02001907YS02006553 CONDUIT    791.41     0  02:03      0.88    0.93    1.00
  YS02001910YS02001907 CONDUIT   1056.48     0  01:50      1.35    0.60    1.00
  YS02001915YS02001910 CONDUIT   1057.01     0  01:50      1.35    0.52    1.00
  YS02001918YS02001915 CONDUIT    567.34     0  01:48      0.73    0.31    1.00
  YS02001920YS02001918 CONDUIT    557.66     0  01:48      0.71    0.54    1.00
  YS02001923YS02001920 CONDUIT    561.90     0  01:48      0.74    0.25    1.00
  YS02001926YS02001923 CONDUIT    771.05     0  01:48      1.21    1.10    1.00
  YS02001929YS02001926 CONDUIT    682.48     0  01:49      1.21    0.32    1.00
  YS02006553YS02006556 CONDUIT    791.38     0  02:03      1.01    0.68    1.00
  YS02006556YS02006558 CONDUIT    794.00     0  02:03      1.01    0.63    1.00
  YS02006558YS02006561 CONDUIT   1179.77     0  01:48      4.17    2.61    1.00
  YS02006561YS02001783 CONDUIT   1155.55     0  01:50      2.30    0.60    1.00
  YS02163301YS02001633 CONDUIT    925.60     0  01:47      1.18    0.87    1.00
  YS02163601YS02164001 CONDUIT   1446.81     0  01:48      1.84    1.28    1.00
  YS02164001YS02001641 CONDUIT   1447.84     0  01:48      1.84    1.98    1.00
  CC-R1                PUMP       683.00     0  00:00              1.00
  CC-R2                PUMP       683.00     0  00:00              1.00
  CC-S1                PUMP       200.00     0  00:00              1.00
  CC-S2                PUMP       200.00     0  00:00              1.00
  JK-R1                PUMP      1000.00     0  00:00              1.00
  JK-R2                PUMP      1000.00     0  00:00              1.00
  JK-S                 PUMP       300.00     0  00:00              1.00
  XR-1                 PUMP        95.00     0  00:00              1.00
  XR-2                 PUMP        95.00     0  00:00              1.00
  XR-3                 PUMP        95.00     0  00:00              1.00
  XR-4                 PUMP        95.00     0  00:00              1.00
  
  
  ***************************
  Flow Classification Summary
  ***************************
  
  -------------------------------------------------------------------------------------
                      Adjusted    ---------- Fraction of Time in Flow Class ---------- 
                       /Actual         Up    Down  Sub   Sup   Up    Down  Norm  Inlet 
  Conduit               Length    Dry  Dry   Dry   Crit  Crit  Crit  Crit  Ltd   Ctrl  
  -------------------------------------------------------------------------------------
  1                       1.00   0.00  0.00  0.00  0.00  1.00  0.00  0.00  0.16  0.00
  WS02001211WS02001212    1.00   0.00  0.02  0.00  0.98  0.00  0.00  0.00  0.00  0.00
  WS02001212WS02001213    1.00   0.02  0.00  0.00  0.19  0.00  0.78  0.00  0.00  0.00
  WS02001213WS02003059    1.00   0.00  0.01  0.00  0.99  0.00  0.00  0.00  0.00  0.00
  WS02003059WS02003060    1.00   0.00  0.00  0.00  1.00  0.00  0.00  0.00  0.03  0.00
  WS02003060WS02003069    1.00   0.00  0.00  0.00  0.98  0.02  0.00  0.00  0.67  0.00
  WS02003066WSF200        1.00   0.13  0.00  0.00  0.00  0.87  0.00  0.00  0.74  0.00
  WS02003067WS02003066    1.00   0.10  0.02  0.00  0.88  0.00  0.00  0.00  0.00  0.00
  WS02003069WS02003072    1.00   0.00  0.00  0.00  1.00  0.00  0.00  0.00  0.78  0.00
  WS02003072WS02003073    1.00   0.00  0.00  0.00  0.00  0.00  0.00  1.00  0.00  0.00
  WS02004138WS02004139    1.00   0.00  0.00  0.00  0.97  0.01  0.00  0.02  0.98  0.00
  WS02004139WS02001211    1.00   0.00  0.00  0.00  0.99  0.00  0.00  0.00  0.00  0.00
  WS02004401WS02004402    1.00   0.02  0.00  0.00  0.98  0.00  0.00  0.00  0.00  0.00
  WS02004402WS02004403    1.00   0.02  0.00  0.00  0.97  0.00  0.00  0.00  0.00  0.00
  WS02004403WS02004404    1.00   0.00  0.03  0.00  0.97  0.00  0.00  0.00  0.00  0.00
  WS02004404WS02004405    1.00   0.00  0.00  0.00  1.00  0.00  0.00  0.00  0.01  0.00
  WS02004405WS02004406    1.00   0.00  0.00  0.00  1.00  0.00  0.00  0.00  0.00  0.00
  WS02004406WS02004407    1.00   0.00  0.05  0.00  0.95  0.00  0.00  0.00  0.00  0.00
  WS02004407WS02004409    1.00   0.05  0.00  0.00  0.94  0.01  0.00  0.00  0.94  0.00
  WS02004409WS02004410    1.00   0.05  0.00  0.00  0.95  0.00  0.00  0.00  0.03  0.00
  WS02004410WS02004411    1.00   0.05  0.00  0.00  0.95  0.00  0.00  0.00  0.01  0.00
  WS02004411WS02004412    1.00   0.05  0.00  0.00  0.95  0.00  0.00  0.00  0.00  0.00
  WS02004412WS02004413    1.00   0.05  0.00  0.00  0.94  0.00  0.00  0.00  0.01  0.00
  WS02004413WS02003067    1.00   0.06  0.04  0.00  0.00  0.00  0.90  0.00  0.00  0.00
  WS02006109WS02006110    1.00   0.00  0.01  0.00  0.98  0.00  0.01  0.00  0.00  0.00
  WS02006110WS02006113    1.00   0.01  0.01  0.00  0.98  0.00  0.00  0.00  0.00  0.00
  WS02006111WS02006112    1.00   0.02  0.00  0.00  0.98  0.00  0.00  0.00  0.98  0.00
  WS02006112WS02006115    1.00   0.02  0.00  0.00  0.97  0.00  0.00  0.00  0.00  0.00
  WS02006113WS02006111    1.00   0.02  0.00  0.00  0.00  0.98  0.00  0.00  0.09  0.00
  WS02006115WS02006116    1.00   0.02  0.00  0.00  0.97  0.00  0.00  0.01  0.00  0.00
  WS02006116WS02004401    1.00   0.02  0.00  0.00  0.98  0.00  0.00  0.00  0.00  0.00
  WS02006228WS02006109    1.00   0.00  0.00  0.00  1.00  0.00  0.00  0.00  0.00  0.00
  WS02006229WS02006228    1.00   0.00  0.00  0.00  0.99  0.00  0.00  0.01  0.00  0.00
  WS02006230WS02006229    1.00   0.00  0.00  0.00  0.99  0.00  0.00  0.01  0.01  0.00
  WS02006231WS02006230    1.00   0.00  0.00  0.00  0.19  0.00  0.81  0.00  0.00  0.00
  WS02006232WS02006231    1.00   0.00  0.00  0.00  0.99  0.00  0.01  0.00  0.00  0.00
  WS02006234WS02006232    1.00   0.00  0.00  0.00  1.00  0.00  0.00  0.00  0.36  0.00
  WS02006235WS02006234    1.00   0.00  0.00  0.00  0.58  0.00  0.42  0.00  0.00  0.00
  WS02006238WS02006235    1.00   0.00  0.00  0.00  1.00  0.00  0.00  0.00  0.00  0.00
  WS02006239WS02006238    1.00   0.00  0.00  0.00  1.00  0.00  0.00  0.00  0.51  0.00
  WS02006240WS02006239    1.00   0.00  0.00  0.00  0.42  0.00  0.00  0.57  0.02  0.00
  WS02006242WS02006240    1.00   0.00  0.00  0.00  1.00  0.00  0.00  0.00  0.00  0.00
  WS02006243WS02006242    1.00   0.00  0.00  0.00  0.99  0.00  0.00  0.01  0.73  0.00
  WS02006245WS02006243    1.00   0.00  0.00  0.00  0.44  0.00  0.00  0.56  0.01  0.00
  WS02006247WS02006245    1.00   0.00  0.00  0.00  0.98  0.00  0.00  0.02  0.00  0.00
  WS02006248WS02006247    1.00   0.00  0.00  0.00  0.99  0.00  0.00  0.01  0.23  0.00
  WS02006249WS02006248    1.00   0.00  0.00  0.00  0.30  0.00  0.70  0.00  0.00  0.00
  WS02006251WS02006249    1.00   0.00  0.00  0.00  0.99  0.01  0.00  0.00  0.74  0.00
  WS02006252WS02006251    1.00   0.00  0.76  0.00  0.13  0.00  0.11  0.00  0.00  0.00
  WS02006256WS02006235    1.00   0.00  0.00  0.00  0.99  0.01  0.00  0.00  0.00  0.00
  WSF200WS02003060        1.00   0.00  0.13  0.00  0.70  0.18  0.00  0.00  0.68  0.00
  YS02001580YS02001583    1.00   0.22  0.61  0.00  0.17  0.00  0.00  0.00  0.70  0.00
  YS02001583YS02001586    1.00   0.49  0.28  0.00  0.23  0.00  0.00  0.00  0.70  0.00
  YS02001586YS02001590    1.00   0.13  0.00  0.00  0.38  0.04  0.00  0.45  0.33  0.00
  YS02001590YS02001593    1.00   0.13  0.01  0.00  0.09  0.00  0.77  0.00  0.00  0.00
  YS02001593YS02001596    1.00   0.13  0.00  0.00  0.11  0.01  0.00  0.75  0.02  0.00
  YS02001596YS02001600    1.00   0.14  0.00  0.00  0.19  0.01  0.00  0.67  0.06  0.00
  YS02001600YS02001601    1.00   0.13  0.01  0.00  0.86  0.00  0.00  0.00  0.62  0.00
  YS02001601YS02001602    1.00   0.13  0.01  0.00  0.87  0.00  0.00  0.00  0.00  0.00
  YS02001602YS02001605    1.00   0.13  0.00  0.00  0.86  0.00  0.00  0.00  0.00  0.00
  YS02001605YS02001607    1.00   0.14  0.00  0.00  0.86  0.00  0.00  0.00  0.00  0.00
  YS02001607YS02001610    1.00   0.13  0.01  0.00  0.86  0.00  0.00  0.00  0.01  0.00
  YS02001610YS02001613    1.00   0.13  0.00  0.00  0.87  0.00  0.00  0.00  0.00  0.00
  YS02001613YS02001616    1.00   0.13  0.00  0.00  0.87  0.00  0.00  0.00  0.00  0.00
  YS02001616YS02001619    1.00   0.13  0.00  0.00  0.87  0.00  0.00  0.00  0.00  0.00
  YS02001619YS02001622    1.00   0.13  0.00  0.00  0.87  0.00  0.00  0.00  0.35  0.00
  YS02001622YS02001625    1.00   0.13  0.00  0.00  0.87  0.00  0.00  0.00  0.04  0.00
  YS02001625YS02001629    1.00   0.13  0.05  0.00  0.14  0.00  0.69  0.00  0.00  0.00
  YS02001629YS02163301    1.00   0.15  0.01  0.00  0.84  0.00  0.00  0.00  0.00  0.00
  YS02001633YS02163601    1.00   0.00  0.01  0.00  0.99  0.00  0.00  0.00  0.15  0.00
  YS02001641YS02001644    1.00   0.00  0.01  0.00  0.99  0.00  0.00  0.00  0.00  0.00
  YS02001644YS02001647    1.00   0.00  0.17  0.00  0.83  0.00  0.00  0.00  0.00  0.00
  YS02001647YS02001649    1.00   0.00  0.17  0.00  0.57  0.26  0.00  0.00  0.59  0.00
  YS02001649YS02001757    1.00   0.00  0.00  0.00  0.70  0.29  0.00  0.00  0.56  0.00
  YS02001652YS02001649    1.00   0.00  0.00  0.00  0.97  0.03  0.00  0.00  0.76  0.00
  YS02001655YS02001652    1.00   0.00  0.00  0.00  0.15  0.03  0.00  0.82  0.06  0.00
  YS02001658YS02001655    1.00   0.00  0.14  0.00  0.66  0.20  0.00  0.00  0.71  0.00
  YS02001661YS02001658    1.00   0.14  0.00  0.00  0.52  0.34  0.00  0.00  0.73  0.00
  YS02001664YS02001661    1.00   0.13  0.00  0.00  0.77  0.10  0.00  0.00  0.86  0.00
  YS02001745YS02001748    1.00   0.00  0.00  0.00  0.07  0.01  0.00  0.92  0.05  0.00
  YS02001748YS02001751    1.00   0.00  0.00  0.00  0.82  0.18  0.00  0.00  0.78  0.00
  YS02001751YS02001754    1.00   0.00  0.00  0.00  0.13  0.00  0.00  0.87  0.02  0.00
  YS02001754YS02001757    1.00   0.00  0.00  0.00  1.00  0.00  0.00  0.00  0.86  0.00
  YS02001757CaochengTiaoxuchi    1.00   0.00  0.00  0.00  1.00  0.00  0.00  0.00  0.85  0.00
  YS02001759YS02001757    1.00   0.00  0.00  0.00  1.00  0.00  0.00  0.00  0.63  0.00
  YS02001762YS02001759    1.00   0.00  0.00  0.00  1.00  0.00  0.00  0.00  0.04  0.00
  YS02001765YS02001762    1.00   0.00  0.00  0.00  1.00  0.00  0.00  0.00  0.75  0.00
  YS02001767YS02001765    1.00   0.00  0.00  0.00  1.00  0.00  0.00  0.00  0.00  0.00
  YS02001770YS02001767    1.00   0.00  0.00  0.00  1.00  0.00  0.00  0.00  0.00  0.00
  YS02001774YS02001770    1.00   0.00  0.13  0.00  0.60  0.00  0.27  0.00  0.03  0.00
  YS02001779YS02001774    1.00   0.00  0.00  0.00  1.00  0.00  0.00  0.00  0.80  0.00
  YS02001783YS02001784    1.00   0.00  0.18  0.00  0.82  0.00  0.00  0.00  0.58  0.00
  YS02001784YS02001785    1.00   0.00  0.00  0.00  1.00  0.00  0.00  0.00  0.17  0.00
  YS02001786YS02001788    1.00   0.00  0.00  0.00  0.80  0.20  0.00  0.00  0.00  0.00
  YS02001788YS02001790    1.00   0.00  0.00  0.00  0.20  0.80  0.00  0.00  0.83  0.00
  YS02001790YS02001791    1.00   0.00  0.00  0.00  0.01  0.99  0.00  0.00  0.16  0.00
  YS02001791YS02001793    1.00   0.00  0.00  0.00  0.00  1.00  0.00  0.00  0.01  0.00
  YS02001793JiankangQianchi    1.00   0.00  0.00  0.00  0.99  0.01  0.00  0.00  0.96  0.00
  YS02001882YS02001884    1.00   0.15  0.01  0.00  0.84  0.00  0.00  0.00  0.00  0.00
  YS02001884YS02001887    1.00   0.06  0.05  0.00  0.89  0.00  0.00  0.00  0.00  0.00
  YS02001887YS02001890    1.00   0.00  0.00  0.00  0.97  0.00  0.03  0.00  0.00  0.00
  YS02001890YS02001895    1.00   0.00  0.16  0.00  0.84  0.00  0.00  0.00  0.00  0.00
  YS02001895YS02001898    1.00   0.16  0.00  0.00  0.82  0.00  0.02  0.00  0.00  0.00
  YS02001898YS02001901    1.00   0.17  0.00  0.00  0.83  0.00  0.00  0.00  0.01  0.00
  YS02001901YS02001904    1.00   0.17  0.00  0.00  0.83  0.00  0.00  0.00  0.00  0.00
  YS02001904YS02001907    1.00   0.00  0.16  0.00  0.83  0.00  0.00  0.00  0.00  0.00
  YS02001907YS02006553    1.00   0.00  0.02  0.00  0.98  0.00  0.00  0.00  0.00  0.00
  YS02001910YS02001907    1.00   0.00  0.00  0.00  0.97  0.00  0.00  0.03  0.12  0.00
  YS02001915YS02001910    1.00   0.00  0.00  0.00  0.97  0.03  0.00  0.00  0.16  0.00
  YS02001918YS02001915    1.00   0.00  0.01  0.00  0.98  0.02  0.00  0.00  0.78  0.00
  YS02001920YS02001918    1.00   0.00  0.01  0.00  0.99  0.00  0.00  0.00  0.00  0.00
  YS02001923YS02001920    1.00   0.00  0.00  0.00  1.00  0.00  0.00  0.00  0.94  0.00
  YS02001926YS02001923    1.00   0.00  0.07  0.00  0.04  0.00  0.88  0.00  0.00  0.00
  YS02001929YS02001926    1.00   0.00  0.13  0.00  0.87  0.00  0.00  0.00  0.84  0.00
  YS02006553YS02006556    1.00   0.01  0.00  0.00  0.99  0.00  0.00  0.00  0.03  0.00
  YS02006556YS02006558    1.00   0.00  0.00  0.00  1.00  0.00  0.00  0.00  0.00  0.00
  YS02006558YS02006561    1.00   0.18  0.00  0.00  0.04  0.78  0.00  0.00  0.19  0.00
  YS02006561YS02001783    1.00   0.18  0.00  0.00  0.07  0.76  0.00  0.00  0.72  0.00
  YS02163301YS02001633    1.00   0.00  0.15  0.00  0.85  0.00  0.00  0.00  0.00  0.00
  YS02163601YS02164001    1.00   0.00  0.08  0.00  0.92  0.00  0.00  0.00  0.00  0.00
  YS02164001YS02001641    1.00   0.01  0.07  0.00  0.92  0.00  0.00  0.00  0.06  0.00
  
  
  *************************
  Conduit Surcharge Summary
  *************************
  
  ----------------------------------------------------------------------------
                                                           Hours        Hours 
                         --------- Hours Full --------   Above Full   Capacity
  Conduit                Both Ends  Upstream  Dnstream   Normal Flow   Limited
  ----------------------------------------------------------------------------
  WS02003072WS02003073        0.01      0.01      0.01      1.54         0.01
  WS02004404WS02004405        0.01      0.01      0.01      1.92         0.01
  WS02004405WS02004406        0.01      0.01      0.01      0.81         0.01
  WS02006109WS02006110        0.88      0.88      1.43      0.97         0.01
  WS02006110WS02006113        0.01      0.01      1.42      0.01         0.01
  WS02006111WS02006112        0.01      0.01      1.51      0.01         0.01
  WS02006112WS02006115        0.01      0.01      0.86      0.01         0.01
  WS02006228WS02006109        1.41      1.43      1.41      1.55         1.41
  WS02006229WS02006228        1.41      1.41      1.41      1.52         1.39
  WS02006230WS02006229        1.48      1.49      1.48      2.58         1.48
  WS02006231WS02006230        0.89      0.89      1.02      2.25         0.01
  WS02006232WS02006231        0.98      0.98      1.43      1.03         0.01
  WS02006234WS02006232        1.38      1.38      1.43      1.02         1.02
  WS02006235WS02006234        1.24      1.24      1.39      1.98         0.01
  WS02006238WS02006235        1.40      1.40      1.43      0.01         0.01
  WS02006239WS02006238        1.42      1.43      1.42      1.43         1.25
  WS02006240WS02006239        1.40      1.42      1.40      1.43         1.15
  WS02006242WS02006240        1.41      1.41      1.43      1.49         0.01
  WS02006243WS02006242        1.40      1.40      1.42      0.01         0.03
  WS02006245WS02006243        1.40      1.40      1.40      0.54         0.62
  WS02006247WS02006245        1.40      1.40      1.40      1.62         1.39
  WS02006248WS02006247        1.39      1.39      1.40      0.01         0.03
  WS02006249WS02006248        1.39      1.39      1.39      1.60         0.01
  WS02006251WS02006249        1.39      1.39      1.39      1.50         1.34
  WS02006252WS02006251        1.58      1.58      1.58      1.58         0.01
  WS02006256WS02006235        2.03      2.07      3.89      1.38         0.01
  YS02001580YS02001583        0.45      0.45      0.50      0.01         0.01
  YS02001583YS02001586        0.46      0.46      0.59      0.01         0.01
  YS02001586YS02001590        0.59      0.59      0.65      0.01         0.01
  YS02001590YS02001593        0.66      0.66      0.67      0.70         0.01
  YS02001593YS02001596        0.66      0.66      0.75      0.01         0.01
  YS02001596YS02001600        0.79      0.79      0.89      0.01         0.01
  YS02001600YS02001601        0.95      0.95      1.28      0.01         0.01
  YS02001601YS02001602        1.13      1.13      1.34      0.90         0.01
  YS02001602YS02001605        1.08      1.08      1.13      2.05         0.01
  YS02001605YS02001607        1.03      1.08      1.03      1.23         1.03
  YS02001607YS02001610        0.63      0.63      0.65      0.01         0.01
  YS02001610YS02001613        0.62      0.62      0.65      0.01         0.01
  YS02001613YS02001616        0.59      0.59      0.62      0.01         0.01
  YS02001616YS02001619        0.57      0.57      0.59      0.01         0.01
  YS02001619YS02001622        0.56      0.57      0.56      0.67         0.53
  YS02001622YS02001625        0.56      0.56      0.73      0.01         0.01
  YS02001625YS02001629        0.52      0.52      0.73      0.01         0.01
  YS02001629YS02163301        0.73      0.73      0.74      0.10         0.15
  YS02001633YS02163601        0.76      0.76      0.78      0.34         0.34
  YS02001641YS02001644        0.67      0.70      0.67      1.41         0.66
  YS02001644YS02001647        0.49      0.49      0.67      0.04         0.01
  YS02001647YS02001649        0.49      0.49      0.59      0.01         0.01
  YS02001649YS02001757        0.59      0.59      0.66      0.07         0.11
  YS02001652YS02001649        0.43      0.43      0.59      0.01         0.01
  YS02001655YS02001652        0.26      0.26      0.41      0.01         0.01
  YS02001658YS02001655        0.09      0.09      0.26      0.01         0.01
  YS02001661YS02001658        0.01      0.01      0.09      0.01         0.01
  YS02001664YS02001661        0.01      0.01      0.01      0.01         0.01
  YS02001745YS02001748        0.01      0.01      0.01      0.01         0.01
  YS02001748YS02001751        0.05      0.05      0.16      0.01         0.01
  YS02001751YS02001754        0.16      0.16      0.32      0.01         0.01
  YS02001754YS02001757        0.36      0.36      0.66      0.01         0.01
  YS02001757CaochengTiaoxuchi        0.65      0.66      1.15      0.27         0.25
  YS02001759YS02001757        0.56      0.56      0.66      0.01         0.01
  YS02001762YS02001759        0.53      0.53      0.56      0.01         0.02
  YS02001765YS02001762        0.48      0.48      0.53      0.01         0.01
  YS02001767YS02001765        0.45      0.45      0.48      0.01         0.02
  YS02001770YS02001767        0.45      0.45      0.45      0.41         0.32
  YS02001774YS02001770        0.42      0.42      0.52      0.01         0.01
  YS02001779YS02001774        0.31      0.31      0.52      0.01         0.01
  YS02001783YS02001784        0.38      0.40      0.38      0.51         0.38
  YS02001784YS02001785        0.28      0.38      0.28      0.72         0.28
  YS02001786YS02001788        0.01      0.28      0.01      0.60         0.01
  YS02001790YS02001791        0.01      0.01      0.01      0.36         0.01
  YS02001793JiankangQianchi        0.01      0.01      7.70      0.01         0.01
  YS02001882YS02001884        0.35      0.35      0.36      0.01         0.01
  YS02001884YS02001887        0.38      0.38      0.39      0.01         0.01
  YS02001887YS02001890        0.40      0.40      0.41      0.01         0.01
  YS02001890YS02001895        0.34      0.34      0.42      0.01         0.01
  YS02001895YS02001898        0.33      0.33      0.34      0.01         0.01
  YS02001898YS02001901        0.34      0.34      0.37      0.01         0.01
  YS02001901YS02001904        0.36      0.36      0.37      0.01         0.01
  YS02001904YS02001907        0.36      0.36      0.58      0.01         0.01
  YS02001907YS02006553        0.73      0.73      0.79      0.01         0.01
  YS02001910YS02001907        0.42      0.42      0.57      0.01         0.01
  YS02001915YS02001910        0.34      0.34      0.42      0.01         0.01
  YS02001918YS02001915        0.27      0.27      0.34      0.01         0.01
  YS02001920YS02001918        0.27      0.27      0.28      0.01         0.01
  YS02001923YS02001920        0.23      0.23      0.28      0.01         0.01
  YS02001926YS02001923        0.01      0.01      0.02      0.01         0.01
  YS02001929YS02001926        0.01      0.01      0.02      0.01         0.01
  YS02006553YS02006556        0.50      0.50      0.59      0.01         0.01
  YS02006556YS02006558        0.54      0.54      0.60      0.01         0.01
  YS02006558YS02006561        0.30      0.49      0.30      0.68         0.30
  YS02006561YS02001783        0.24      0.24      0.40      0.01         0.01
  YS02163301YS02001633        0.74      0.74      0.77      0.01         0.01
  YS02163601YS02164001        0.71      0.71      0.78      0.04         0.01
  YS02164001YS02001641        0.70      0.71      0.70      0.67         0.59
  
  
  ***************
  Pumping Summary
  ***************
  
  ---------------------------------------------------------------------------------------------------------
                                                  Min       Avg       Max     Total     Power    % Time Off
                        Percent   Number of      Flow      Flow      Flow    Volume     Usage    Pump Curve
  Pump                 Utilized   Start-Ups       LPS       LPS       LPS  10^6 ltr     Kw-hr    Low   High
  ---------------------------------------------------------------------------------------------------------
  CC-R1                   19.00          13      0.00    683.00    683.00     3.738     68.29    0.0   28.4
  CC-R2                   17.96          13      0.00    683.00    683.00     3.532     64.47    0.0   30.1
  CC-S1                   20.96          13      0.00    200.00    200.00     1.207      7.16    0.0    0.0
  CC-S2                   19.73          13      0.00    200.00    200.00     1.137      6.74    0.0    0.0
  JK-R1                    6.01           9      0.00   1000.00   1000.00     1.729     20.02    0.0    0.0
  JK-R2                    0.16           1      0.00   1000.00   1000.00     0.047      0.36    0.0    0.0
  JK-S                    17.24          14      0.00    300.00    300.00     1.490     20.42    0.0    0.0
  XR-1                    97.91           2      0.00     95.00     95.00     2.679      9.60    0.0    0.0
  XR-2                    93.94           2      0.00     95.00     95.00     2.570      8.76    0.0    0.0
  XR-3                     0.00           1      0.00     95.00     95.00     0.000      0.00    0.0    0.0
  XR-4                     0.00           1      0.00     95.00     95.00     0.000      0.00    0.0    0.0
  

  Analysis begun on:  Wed Nov  5 16:30:40 2025
  Analysis ended on:  Wed Nov  5 16:30:43 2025
  Total elapsed time: 00:00:03