
  EPA STORM WATER MANAGEMENT MODEL - VERSION 5.2 (Build 5.2.4)
  PYSWMM TOOLKIT API - VERSION v1.0 (2023-11-27)
  ------------------------------------------------------------

  WARNING 04: minimum elevation drop used for Conduit WS02004404WS02004405
  WARNING 03: negative offset ignored for Link YS02001904YS02001907
  
  ****************
  Analysis Options
  ****************
  Flow Units ............... LPS
  Process Models:
    Rainfall/Runoff ........ YES
    RDII ................... NO
    Snowmelt ............... NO
    Groundwater ............ NO
    Flow Routing ........... YES
    Ponding Allowed ........ NO
    Water Quality .......... NO
  Infiltration Method ...... HORTON
  Flow Routing Method ...... DYNWAVE
  Surcharge Method ......... EXTRAN
  Starting Date ............ 08/28/2015 08:00:00
  Ending Date .............. 08/28/2015 16:00:00
  Antecedent Dry Days ...... 8.0
  Report Time Step ......... 00:01:00
  Wet Time Step ............ 00:01:00
  Dry Time Step ............ 00:01:00
  Routing Time Step ........ 30.00 sec
  Variable Time Step ....... YES
  Maximum Trials ........... 8
  Number of Threads ........ 4
  Head Tolerance ........... 0.001500 m
  
  
  **************************        Volume         Depth
  Runoff Quantity Continuity     hectare-m            mm
  **************************     ---------       -------
  Initial LID Storage ......         0.049         1.488
  Total Precipitation ......         1.508        45.466
  Evaporation Loss .........         0.000         0.000
  Infiltration Loss ........         0.074         2.230
  Surface Runoff ...........         1.091        32.886
  Final Storage ............         0.393        11.844
  Continuity Error (%) .....        -0.015
  
  
  **************************        Volume        Volume
  Flow Routing Continuity        hectare-m      10^6 ltr
  **************************     ---------     ---------
  Dry Weather Inflow .......         0.602         6.020
  Wet Weather Inflow .......         1.091        10.908
  Groundwater Inflow .......         0.000         0.000
  RDII Inflow ..............         0.000         0.000
  External Inflow ..........         0.105         1.045
  External Outflow .........         1.594        15.937
  Flooding Loss ............         0.174         1.736
  Evaporation Loss .........         0.000         0.000
  Exfiltration Loss ........         0.000         0.000
  Initial Stored Volume ....         0.303         3.031
  Final Stored Volume ......         0.337         3.374
  Continuity Error (%) .....        -0.201
  
  
  *************************
  Highest Continuity Errors
  *************************
  Node YS02001884 (5.08%)
  Node YS02001583 (-4.54%)
  Node YS02001774 (1.51%)
  
  
  ***************************
  Time-Step Critical Elements
  ***************************
  Link WS02004404WS02004405 (47.03%)
  Link WS02006238WS02006235 (15.46%)
  Link WS02006252WS02006251 (11.76%)
  Link YS02001791YS02001793 (9.10%)
  Link WS02003066WSF200 (3.61%)
  
  
  ********************************
  Highest Flow Instability Indexes
  ********************************
  Link WS02006113WS02006111 (24)
  Link WS02006238WS02006235 (20)
  Link WS02006111WS02006112 (17)
  Link WS02006110WS02006113 (14)
  Link WS02006235WS02006234 (14)
  
  
  *********************************
  Most Frequent Nonconverging Nodes
  *********************************
  Node CC-1 (10.31%)
  Node CC-2 (10.31%)
  Node JK-1 (10.31%)
  Node JK-2 (10.31%)
  Node WSC (10.31%)
  
  
  *************************
  Routing Time Step Summary
  *************************
  Minimum Time Step           :     0.01 sec
  Average Time Step           :     3.61 sec
  Maximum Time Step           :     7.04 sec
  % of Time in Steady State   :     0.00
  Average Iterations per Step :     2.92
  % of Steps Not Converging   :    10.31
  Time Step Frequencies       :
     30.000 - 13.228 sec      :     0.00 %
     13.228 -  5.833 sec      :    32.25 %
      5.833 -  2.572 sec      :    23.03 %
      2.572 -  1.134 sec      :    27.60 %
      1.134 -  0.500 sec      :    17.12 %
  
  
  ***************************
  Subcatchment Runoff Summary
  ***************************
  
  ------------------------------------------------------------------------------------------------------------------------------
                            Total      Total      Total      Total     Imperv       Perv      Total       Total     Peak  Runoff
                           Precip      Runon       Evap      Infil     Runoff     Runoff     Runoff      Runoff   Runoff   Coeff
  Subcatchment                 mm         mm         mm         mm         mm         mm         mm    10^6 ltr      LPS
  ------------------------------------------------------------------------------------------------------------------------------
  sub60                     45.47       0.00       0.00       1.33      29.95       2.88      32.83        0.43   286.73   0.722
  sub61                     45.47       0.00       0.00       2.04      29.92       4.28      34.20        0.63   417.20   0.752
  sub62                     45.47       0.00       0.00       0.90      31.90       1.96      33.85        0.93   571.81   0.745
  sub63                     45.47       0.00       0.00       3.75      25.63       7.05      32.68        0.74   467.56   0.719
  sub64                     45.47       0.00       0.00       1.80      29.18       3.52      32.69        0.79   465.84   0.719
  sub65                     45.47       0.00       0.00       1.65      31.49       3.21      34.69        0.96   544.04   0.763
  sub66                     45.47       0.00       0.00       4.37      24.77       6.09      30.85        1.44   696.17   0.679
  sub67                     45.47       0.00       0.00       0.90      32.71       2.03      34.74        0.65   446.80   0.764
  sub68                     45.47       0.00       0.00       1.57      28.88       3.28      32.16        0.89   567.31   0.707
  sub69                     45.47       0.00       0.00       1.42      30.55       3.98      34.53        1.28   705.30   0.760
  sub70                     45.47       0.00       0.00       4.76      24.46       7.89      32.35        0.93   403.40   0.712
  sub71                     45.47       0.00       0.00       0.83      28.97       1.77      30.74        0.80   472.61   0.676
  sub72                     45.47       0.00       0.00       0.80      31.28       1.64      32.92        0.45   242.77   0.724
  

  ***********************
  LID Performance Summary
  ***********************

  --------------------------------------------------------------------------------------------------------------------
                                         Total      Evap     Infil   Surface    Drain    Initial     Final  Continuity
                                        Inflow      Loss      Loss   Outflow   Outflow   Storage   Storage       Error
  Subcatchment      LID Control             mm        mm        mm        mm        mm        mm        mm           %
  --------------------------------------------------------------------------------------------------------------------
  sub60             GreenRoof            45.47      0.00      0.00      0.00      0.00      7.05     52.52       -0.00
  sub61             GreenRoof            45.47      0.00      0.00      0.00      0.00      7.05     52.52       -0.00
  sub62             GreenRoof            45.47      0.00      0.00      0.00      0.00      7.05     52.52       -0.00
  sub63             GreenRoof            45.47      0.00      0.00      0.00      0.00      7.05     52.52       -0.00
  sub64             GreenRoof            45.47      0.00      0.00      0.00      0.00      7.05     52.52       -0.00
  sub65             GreenRoof            45.47      0.00      0.00      0.00      0.00      7.05     52.52       -0.00
  sub66             GreenRoof            45.47      0.00      0.00      0.00      0.00      7.05     52.52       -0.00
  sub67             GreenRoof            45.47      0.00      0.00      0.00      0.00      7.05     52.52       -0.00
  sub68             GreenRoof            45.47      0.00      0.00      0.00      0.00      7.05     52.52       -0.00
  sub69             GreenRoof            45.47      0.00      0.00      0.00      0.00      7.05     52.52       -0.00
  sub70             GreenRoof            45.47      0.00      0.00      0.00      0.00      7.05     52.52       -0.00
  sub71             GreenRoof            45.47      0.00      0.00      0.00      0.00      7.05     52.52       -0.00
  sub72             GreenRoof            45.47      0.00      0.00      0.00      0.00      7.05     52.52       -0.00
  
  ******************
  Node Depth Summary
  ******************
  
  ---------------------------------------------------------------------------------
                                 Average  Maximum  Maximum  Time of Max    Reported
                                   Depth    Depth      HGL   Occurrence   Max Depth
  Node                 Type       Meters   Meters   Meters  days hr:min      Meters
  ---------------------------------------------------------------------------------
  WS02001211           JUNCTION     0.60     0.64     5.48     0  02:46        0.64
  WS02001212           JUNCTION     0.33     0.38     5.45     0  02:45        0.38
  WS02001213           JUNCTION     0.52     0.65     5.41     0  02:55        0.65
  WS02003059           JUNCTION     0.59     0.72     5.40     0  02:44        0.72
  WS02003060           JUNCTION     0.29     0.45     5.38     0  02:43        0.45
  WS02003066           JUNCTION     0.15     0.30     5.85     0  02:53        0.30
  WS02003067           JUNCTION     0.41     0.70     6.02     0  02:41        0.70
  WS02003069           JUNCTION     0.33     0.51     5.10     0  02:54        0.51
  WS02003072           JUNCTION     0.39     0.58     4.95     0  02:55        0.58
  WS02003073           JUNCTION     0.23     0.35     4.41     0  02:55        0.35
  WS02004138           JUNCTION     0.13     0.14     7.39     0  00:29        0.14
  WS02004139           JUNCTION     0.54     0.58     5.49     0  02:57        0.58
  WS02004401           JUNCTION     0.50     0.85     6.85     0  02:51        0.85
  WS02004402           JUNCTION     0.53     0.88     6.84     0  02:51        0.88
  WS02004403           JUNCTION     0.56     0.89     6.82     0  02:51        0.89
  WS02004404           JUNCTION     0.63     0.96     6.81     0  02:51        0.96
  WS02004405           JUNCTION     0.63     0.96     6.81     0  02:51        0.96
  WS02004406           JUNCTION     0.64     0.96     6.79     0  02:51        0.96
  WS02004407           JUNCTION     0.13     0.30     6.61     0  02:52        0.30
  WS02004409           JUNCTION     0.29     0.67     6.44     0  02:52        0.67
  WS02004410           JUNCTION     0.32     0.68     6.40     0  02:52        0.68
  WS02004411           JUNCTION     0.34     0.69     6.37     0  02:52        0.69
  WS02004412           JUNCTION     0.37     0.70     6.34     0  02:53        0.70
  WS02004413           JUNCTION     0.52     0.86     6.33     0  02:53        0.86
  WS02006109           JUNCTION     0.56     1.03     7.64     0  03:16        0.99
  WS02006110           JUNCTION     0.56     0.99     7.58     0  03:16        0.94
  WS02006111           JUNCTION     0.14     0.29     6.99     0  02:38        0.29
  WS02006112           JUNCTION     0.65     1.07     6.95     0  02:33        1.05
  WS02006113           JUNCTION     0.21     0.46     7.35     0  02:43        0.46
  WS02006115           JUNCTION     0.38     0.75     6.89     0  02:50        0.75
  WS02006116           JUNCTION     0.47     0.83     6.87     0  02:50        0.83
  WS02006228           JUNCTION     0.55     1.07     7.72     0  03:15        1.03
  WS02006229           JUNCTION     0.52     1.09     7.78     0  03:15        1.02
  WS02006230           JUNCTION     0.52     1.22     7.97     0  03:15        1.12
  WS02006231           JUNCTION     0.34     0.92     8.05     0  03:15        0.87
  WS02006232           JUNCTION     0.46     1.10     8.14     0  02:10        1.07
  WS02006234           JUNCTION     0.39     1.11     8.27     0  02:10        1.10
  WS02006235           JUNCTION     0.44     1.23     8.40     0  03:15        1.17
  WS02006238           JUNCTION     0.46     1.27     8.42     0  03:15        1.19
  WS02006239           JUNCTION     0.42     1.28     8.49     0  03:15        1.18
  WS02006240           JUNCTION     0.39     1.25     8.54     0  03:15        1.15
  WS02006242           JUNCTION     0.44     1.32     8.59     0  03:15        1.24
  WS02006243           JUNCTION     0.37     1.20     8.62     0  03:15        1.13
  WS02006245           JUNCTION     0.37     1.16     8.64     0  03:15        1.13
  WS02006247           JUNCTION     0.39     1.15     8.65     0  03:15        1.14
  WS02006248           JUNCTION     0.36     1.10     8.69     0  03:15        1.08
  WS02006249           JUNCTION     0.38     1.09     8.69     0  02:09        1.09
  WS02006251           JUNCTION     0.38     1.39     9.06     0  02:10        1.13
  WS02006252           JUNCTION     0.25     1.50     9.74     0  00:00        0.68
  WS02006256           JUNCTION     1.11     2.35     9.28     0  00:00        2.35
  WSF200               JUNCTION     0.12     0.31     5.54     0  02:43        0.31
  YS02001580           JUNCTION     0.07     1.05     9.59     0  02:09        0.78
  YS02001583           JUNCTION     0.10     1.14     9.64     0  02:09        0.82
  YS02001586           JUNCTION     0.19     1.13     9.30     0  02:09        1.13
  YS02001590           JUNCTION     0.29     1.40     9.26     0  02:07        1.37
  YS02001593           JUNCTION     0.22     1.46     9.32     0  02:07        1.29
  YS02001596           JUNCTION     0.32     1.68     9.10     0  02:09        1.65
  YS02001600           JUNCTION     0.41     1.87     9.00     0  02:09        1.86
  YS02001601           JUNCTION     0.60     2.06     8.90     0  02:07        2.06
  YS02001602           JUNCTION     0.51     1.87     8.77     0  02:09        1.87
  YS02001605           JUNCTION     0.47     1.78     8.68     0  02:09        1.77
  YS02001607           JUNCTION     0.44     1.66     8.51     0  02:24        1.66
  YS02001610           JUNCTION     0.48     1.68     8.48     0  02:09        1.68
  YS02001613           JUNCTION     0.44     1.67     8.51     0  02:09        1.64
  YS02001616           JUNCTION     0.38     1.61     8.52     0  02:09        1.58
  YS02001619           JUNCTION     0.35     1.59     8.52     0  02:09        1.57
  YS02001622           JUNCTION     0.34     1.58     8.48     0  02:09        1.55
  YS02001625           JUNCTION     0.60     1.78     8.38     0  02:09        1.78
  YS02001629           JUNCTION     0.47     1.85     8.40     0  02:09        1.85
  YS02001633           JUNCTION     0.55     2.01     8.47     0  02:13        1.96
  YS02001641           JUNCTION     0.52     1.96     8.40     0  02:13        1.86
  YS02001644           JUNCTION     0.51     1.92     8.35     0  02:13        1.85
  YS02001647           JUNCTION     0.29     1.70     8.31     0  02:13        1.60
  YS02001649           JUNCTION     0.33     1.85     8.24     0  02:13        1.75
  YS02001652           JUNCTION     0.22     1.74     8.34     0  02:13        1.54
  YS02001655           JUNCTION     0.16     1.73     8.58     0  02:13        1.32
  YS02001658           JUNCTION     0.11     1.69     8.84     0  02:13        1.08
  YS02001661           JUNCTION     0.14     0.89     8.29     0  02:14        0.83
  YS02001664           JUNCTION     0.06     0.27     8.19     0  02:14        0.26
  YS02001745           JUNCTION     0.06     0.66     8.18     0  02:14        0.54
  YS02001748           JUNCTION     0.10     1.58     8.65     0  02:14        0.99
  YS02001751           JUNCTION     0.13     1.40     8.28     0  02:14        1.19
  YS02001754           JUNCTION     0.18     1.55     8.16     0  02:14        1.44
  YS02001757           JUNCTION     0.34     1.83     8.09     0  02:14        1.77
  YS02001759           JUNCTION     0.28     1.78     8.15     0  02:14        1.74
  YS02001762           JUNCTION     0.27     1.78     8.18     0  02:14        1.74
  YS02001765           JUNCTION     0.25     1.75     8.20     0  02:14        1.71
  YS02001767           JUNCTION     0.25     1.76     8.25     0  02:12        1.69
  YS02001770           JUNCTION     0.27     1.95     8.44     0  02:12        1.72
  YS02001774           JUNCTION     0.33     1.94     8.36     0  02:12        1.79
  YS02001779           JUNCTION     0.16     1.68     8.37     0  02:12        1.53
  YS02001783           JUNCTION     0.25     1.24     7.38     0  02:13        1.21
  YS02001784           JUNCTION     0.27     1.13     7.20     0  02:13        1.10
  YS02001786           JUNCTION     0.23     0.89     6.92     0  02:13        0.86
  YS02001788           JUNCTION     0.17     0.62     6.60     0  02:13        0.61
  YS02001790           JUNCTION     0.20     0.72     6.36     0  02:14        0.71
  YS02001791           JUNCTION     0.13     0.44     5.91     0  02:15        0.43
  YS02001793           JUNCTION     0.07     0.30     5.13     0  02:17        0.27
  YS02001882           JUNCTION     0.31     1.76     8.48     0  02:11        1.65
  YS02001884           JUNCTION     0.40     1.84     8.46     0  02:11        1.74
  YS02001887           JUNCTION     0.47     1.87     8.41     0  02:11        1.81
  YS02001890           JUNCTION     0.50     1.81     8.32     0  02:11        1.81
  YS02001895           JUNCTION     0.28     1.56     8.31     0  02:13        1.55
  YS02001898           JUNCTION     0.29     1.56     8.29     0  02:13        1.55
  YS02001901           JUNCTION     0.39     1.67     8.28     0  02:13        1.66
  YS02001904           JUNCTION     0.38     1.63     8.26     0  02:15        1.63
  YS02001907           JUNCTION     0.69     1.96     8.25     0  02:13        1.96
  YS02001910           JUNCTION     0.49     1.96     8.47     0  02:13        1.78
  YS02001915           JUNCTION     0.31     1.91     8.63     0  02:13        1.60
  YS02001918           JUNCTION     0.15     1.81     8.88     0  02:13        1.30
  YS02001920           JUNCTION     0.23     2.14     9.15     0  02:13        1.43
  YS02001923           JUNCTION     0.11     2.03     9.29     0  02:13        1.29
  YS02001926           JUNCTION     0.15     1.90     9.35     0  02:13        1.16
  YS02001929           JUNCTION     0.08     1.78     9.47     0  02:13        0.99
  YS02006553           JUNCTION     0.69     1.96     8.25     0  02:13        1.96
  YS02006556           JUNCTION     0.66     1.92     8.23     0  02:13        1.91
  YS02006558           JUNCTION     0.70     1.95     8.22     0  02:13        1.95
  YS02006561           JUNCTION     0.15     0.91     7.57     0  02:13        0.86
  YS02163301           JUNCTION     0.49     1.92     8.43     0  02:13        1.89
  YS02163601           JUNCTION     0.58     2.05     8.44     0  02:13        1.95
  YS02164001           JUNCTION     0.51     1.97     8.43     0  02:13        1.86
  CC-1                 OUTFALL      0.00     0.00     0.00     0  00:00        0.00
  CC-2                 OUTFALL      0.00     0.00     0.00     0  00:00        0.00
  JK-1                 OUTFALL      0.00     0.00     0.00     0  00:00        0.00
  JK-2                 OUTFALL      0.00     0.00     0.00     0  00:00        0.00
  WSC                  OUTFALL      0.23     0.35     1.02     0  02:56        0.35
  CC-storage           STORAGE      0.79     1.50     7.00     0  02:30        1.50
  JK-storage           STORAGE      2.87     4.23     5.03     0  02:16        4.19
  XR-storage           STORAGE      7.83     9.26     7.26     0  08:00        9.26
  
  
  *******************
  Node Inflow Summary
  *******************
  
  -------------------------------------------------------------------------------------------------
                                  Maximum  Maximum                  Lateral       Total        Flow
                                  Lateral    Total  Time of Max      Inflow      Inflow     Balance
                                   Inflow   Inflow   Occurrence      Volume      Volume       Error
  Node                 Type           LPS      LPS  days hr:min    10^6 ltr    10^6 ltr     Percent
  -------------------------------------------------------------------------------------------------
  WS02001211           JUNCTION      7.35   200.40     0  03:21       0.212        5.44       0.611
  WS02001212           JUNCTION      0.00   202.45     0  03:21           0        5.41       0.290
  WS02001213           JUNCTION      0.00   204.30     0  03:34           0        5.39       0.331
  WS02003059           JUNCTION      0.00   209.28     0  03:34           0        5.38       0.592
  WS02003060           JUNCTION     16.53   751.54     0  02:43       0.476        8.76       0.160
  WS02003066           JUNCTION      0.00   536.87     0  02:53           0        2.94       0.041
  WS02003067           JUNCTION      0.00   536.86     0  02:53           0        2.94       0.137
  WS02003069           JUNCTION      0.32   751.14     0  02:54     0.00922        8.75       0.170
  WS02003072           JUNCTION      0.00   751.01     0  02:55           0        8.73       0.231
  WS02003073           JUNCTION      1.82   752.76     0  02:55      0.0524        8.77       0.238
  WS02004138           JUNCTION      0.00   380.00     0  00:00           0        5.25       0.053
  WS02004139           JUNCTION      0.32   191.16     0  00:29     0.00924        5.26       0.509
  WS02004401           JUNCTION      0.00   540.28     0  02:51           0        3.04       0.326
  WS02004402           JUNCTION      0.00   539.68     0  02:51           0        3.03       0.333
  WS02004403           JUNCTION      0.00   539.16     0  02:51           0        3.02       0.327
  WS02004404           JUNCTION      0.16   538.93     0  02:51     0.00467        3.01       0.273
  WS02004405           JUNCTION      0.04   538.84     0  02:51      0.0011        3.01       0.408
  WS02004406           JUNCTION      0.00   539.04     0  02:51           0        2.99       0.683
  WS02004407           JUNCTION      0.00   538.32     0  02:51           0        2.97       0.032
  WS02004409           JUNCTION      0.00   537.93     0  02:52           0        2.97       0.077
  WS02004410           JUNCTION      0.00   537.56     0  02:52           0        2.97       0.132
  WS02004411           JUNCTION      0.00   537.32     0  02:52           0        2.97       0.173
  WS02004412           JUNCTION      0.00   537.14     0  02:52           0        2.96       0.237
  WS02004413           JUNCTION      0.00   537.08     0  02:40           0        2.95       0.427
  WS02006109           JUNCTION      1.23   541.76     0  02:11      0.0354        3.08       0.266
  WS02006110           JUNCTION      0.00   542.16     0  02:11           0        3.07       0.202
  WS02006111           JUNCTION      0.00   560.03     0  02:50           0        3.07       0.020
  WS02006112           JUNCTION      0.00   543.29     0  02:50           0        3.07       0.571
  WS02006113           JUNCTION      0.00   554.84     0  02:11           0        3.07       0.053
  WS02006115           JUNCTION      0.00   552.08     0  02:33           0        3.05       0.204
  WS02006116           JUNCTION      0.00   541.89     0  02:50           0        3.04       0.146
  WS02006228           JUNCTION      0.00   540.50     0  02:11           0        3.05       0.111
  WS02006229           JUNCTION      0.00   540.29     0  02:10           0        3.06       0.147
  WS02006230           JUNCTION     10.28   573.81     0  03:15       0.296        3.06       0.193
  WS02006231           JUNCTION      0.00   570.99     0  03:15           0        2.76      -0.125
  WS02006232           JUNCTION      0.00   570.36     0  03:15           0        2.77       0.347
  WS02006234           JUNCTION      0.00   566.47     0  03:15           0        2.76      -0.263
  WS02006235           JUNCTION      0.00   559.65     0  03:15           0        2.81       0.291
  WS02006238           JUNCTION      0.00   417.53     0  03:13           0        1.86      -0.146
  WS02006239           JUNCTION      0.00   417.45     0  03:13           0        1.83      -0.035
  WS02006240           JUNCTION      0.00   415.88     0  03:13           0        1.81      -0.070
  WS02006242           JUNCTION      0.00   416.08     0  03:13           0        1.79      -0.189
  WS02006243           JUNCTION      0.00   415.85     0  03:16           0        1.78      -0.102
  WS02006245           JUNCTION      0.00   416.27     0  03:16           0        1.79       0.577
  WS02006247           JUNCTION      0.00   415.96     0  03:16           0        1.79      -0.021
  WS02006248           JUNCTION      0.00   416.63     0  03:15           0        1.79      -0.179
  WS02006249           JUNCTION      0.00   458.97     0  00:00           0        2.07       0.667
  WS02006251           JUNCTION      0.08   407.82     0  02:10     0.00222        2.08       0.017
  WS02006252           JUNCTION      0.00   400.00     0  00:00           0        2.07      -0.305
  WS02006256           JUNCTION      0.00   300.00     0  00:00           0        1.43      -0.235
  WSF200               JUNCTION      0.00   536.90     0  02:53           0        2.94       0.016
  YS02001580           JUNCTION      0.00   118.83     0  02:09           0     0.00404      -3.815
  YS02001583           JUNCTION      0.00   169.77     0  02:09           0      0.0151      -4.340
  YS02001586           JUNCTION    403.40   403.53     0  02:15       0.935       0.946       0.121
  YS02001590           JUNCTION      0.00   318.09     0  02:15           0       0.897      -0.046
  YS02001593           JUNCTION      0.00   318.10     0  02:15           0       0.898      -0.002
  YS02001596           JUNCTION      0.00   317.97     0  02:16           0       0.898      -0.013
  YS02001600           JUNCTION      0.00   318.00     0  02:14           0       0.898       0.010
  YS02001601           JUNCTION    705.30  1022.53     0  02:14        1.28        2.18       0.030
  YS02001602           JUNCTION      0.00   516.64     0  02:09           0        1.71       0.018
  YS02001605           JUNCTION      0.00   516.36     0  02:09           0        1.66       0.024
  YS02001607           JUNCTION      0.00   515.58     0  02:09           0        1.66       0.104
  YS02001610           JUNCTION      0.00   516.85     0  02:09           0        1.65       0.123
  YS02001613           JUNCTION      0.00   518.17     0  02:08           0        1.55       0.098
  YS02001616           JUNCTION      0.00   522.27     0  02:08           0        1.55       0.013
  YS02001619           JUNCTION    696.17   930.11     0  02:11        1.44        2.99      -0.005
  YS02001622           JUNCTION      0.00   931.73     0  02:09           0        2.98      -0.004
  YS02001625           JUNCTION      0.00   939.15     0  02:09           0        2.98       0.299
  YS02001629           JUNCTION      0.00   939.94     0  02:09           0        2.76       0.016
  YS02001633           JUNCTION    544.24  1374.07     0  02:11       0.961        3.72       0.087
  YS02001641           JUNCTION      0.00  1370.49     0  02:11           0        3.72       0.071
  YS02001644           JUNCTION    465.88  1760.90     0  02:11       0.786         4.5       0.069
  YS02001647           JUNCTION      0.00  1760.24     0  02:11           0        4.49       0.008
  YS02001649           JUNCTION      0.00  1982.09     0  02:11           0        5.24       0.006
  YS02001652           JUNCTION      0.00   570.04     0  02:15           0       0.748      -0.093
  YS02001655           JUNCTION      0.15   570.33     0  02:15     0.00443       0.747      -0.074
  YS02001658           JUNCTION      0.00   649.46     0  02:13           0       0.741      -0.095
  YS02001661           JUNCTION      0.00   484.85     0  02:14           0       0.742       0.055
  YS02001664           JUNCTION    467.56   467.56     0  02:14       0.742       0.742      -0.014
  YS02001745           JUNCTION    286.73   327.74     0  02:13       0.432       0.432       0.324
  YS02001748           JUNCTION      0.04   562.87     0  02:14      0.0013       0.433      -0.558
  YS02001751           JUNCTION      0.01   427.82     0  02:17    0.000317       0.442       0.002
  YS02001754           JUNCTION      0.26   353.27     0  02:14     0.00749       0.459      -0.215
  YS02001757           JUNCTION      0.00  2993.13     0  02:14           0        7.26       0.014
  YS02001759           JUNCTION    417.24  1037.41     0  02:12       0.629        1.57      -0.018
  YS02001762           JUNCTION      0.00   620.28     0  02:12           0       0.946      -0.002
  YS02001765           JUNCTION      0.00   612.96     0  02:12           0       0.945       0.035
  YS02001767           JUNCTION      0.54   605.45     0  02:12      0.0154       0.944      -0.014
  YS02001770           JUNCTION    571.96   600.38     0  02:12       0.932       0.974      -0.010
  YS02001774           JUNCTION      0.00   420.45     0  02:12           0      0.0634       1.531
  YS02001779           JUNCTION      0.01   425.60     0  02:12    0.000144      0.0203      -3.404
  YS02001783           JUNCTION      0.00  1147.16     0  02:14           0        2.71       0.010
  YS02001784           JUNCTION      1.06  1148.13     0  02:14      0.0305        2.74       0.017
  YS02001786           JUNCTION      0.06  1148.16     0  02:14     0.00162        2.75       0.025
  YS02001788           JUNCTION      0.07  1148.13     0  02:14     0.00204        2.75       0.010
  YS02001790           JUNCTION      0.15  1160.83     0  02:13     0.00446        2.75       0.022
  YS02001791           JUNCTION      0.00  1275.59     0  02:14           0        2.75      -0.015
  YS02001793           JUNCTION      0.00  1223.43     0  02:15           0        2.75       0.008
  YS02001882           JUNCTION      0.00    66.80     0  02:11           0      0.0125       4.925
  YS02001884           JUNCTION      0.00    73.50     0  02:11           0      0.0482       5.346
  YS02001887           JUNCTION    447.25   451.31     0  02:13       0.659       0.692       0.630
  YS02001890           JUNCTION      0.00   452.15     0  02:13           0       0.652       0.783
  YS02001895           JUNCTION      0.00   456.22     0  02:11           0       0.647       0.225
  YS02001898           JUNCTION      0.00   466.02     0  02:11           0       0.645       0.019
  YS02001901           JUNCTION      0.00   481.84     0  02:11           0       0.648       0.500
  YS02001904           JUNCTION      0.00   486.08     0  02:11           0       0.652       0.416
  YS02001907           JUNCTION      0.00  1340.11     0  02:14           0        1.98       0.904
  YS02001910           JUNCTION      0.00   923.92     0  02:14           0        1.34       0.539
  YS02001915           JUNCTION    472.63   923.32     0  02:14       0.804        1.38       0.114
  YS02001918           JUNCTION      0.00   455.07     0  02:14           0       0.601       0.065
  YS02001920           JUNCTION      2.87   453.65     0  02:14      0.0827       0.583       0.166
  YS02001923           JUNCTION      0.04   428.70     0  02:13     0.00109       0.485      -0.110
  YS02001926           JUNCTION      0.05   614.73     0  02:13      0.0015       0.466      -0.234
  YS02001929           JUNCTION    242.77   375.90     0  02:13       0.453       0.455      -0.162
  YS02006553           JUNCTION      0.00   785.56     0  02:22           0        1.85       0.633
  YS02006556           JUNCTION      0.00   785.46     0  02:22           0        1.86       0.429
  YS02006558           JUNCTION    568.19  1148.17     0  02:14        0.91        2.74       0.125
  YS02006561           JUNCTION      0.00  1147.26     0  02:13           0        2.71       0.001
  YS02163301           JUNCTION      0.00   931.80     0  02:11           0        2.76       0.050
  YS02163601           JUNCTION      0.11  1375.42     0  02:11     0.00317        3.71       0.128
  YS02164001           JUNCTION      0.00  1373.62     0  02:11           0        3.71       0.060
  CC-1                 OUTFALL       0.00   683.00     0  00:00           0        3.07       0.000
  CC-2                 OUTFALL       0.00   683.00     0  00:00           0        2.85       0.000
  JK-1                 OUTFALL       0.00  1000.00     0  00:00           0        1.22       0.000
  JK-2                 OUTFALL       0.00  1000.00     0  00:00           0      0.0484       0.000
  WSC                  OUTFALL       0.00   752.69     0  02:56           0        8.75       0.000
  CC-storage           STORAGE       0.00  2996.61     0  02:14           0        9.48      -0.247
  JK-storage           STORAGE       0.00  1222.63     0  02:15           0         2.9       0.257
  XR-storage           STORAGE     200.00   200.00     0  00:00        5.76        6.36       0.001
  
  
  **********************
  Node Surcharge Summary
  **********************
  
  Surcharging occurs when water rises above the top of the highest conduit.
  ---------------------------------------------------------------------
                                               Max. Height   Min. Depth
                                   Hours       Above Crown    Below Rim
  Node                 Type      Surcharged         Meters       Meters
  ---------------------------------------------------------------------
  WS02006109           JUNCTION        1.21          0.206        1.614
  WS02006110           JUNCTION        1.04          0.081        1.769
  WS02006112           JUNCTION        1.00          0.066        1.614
  WS02006228           JUNCTION        1.21          0.237        1.963
  WS02006229           JUNCTION        1.22          0.288        2.162
  WS02006230           JUNCTION        1.04          0.144        1.426
  WS02006231           JUNCTION        1.06          0.214        1.316
  WS02006232           JUNCTION        1.27          0.403        1.077
  WS02006234           JUNCTION        1.16          0.394        0.846
  WS02006235           JUNCTION        1.22          0.521        0.769
  WS02006238           JUNCTION        1.24          0.553        0.877
  WS02006239           JUNCTION        1.20          0.539        0.751
  WS02006240           JUNCTION        1.20          0.537        0.853
  WS02006242           JUNCTION        1.21          0.588        0.232
  WS02006243           JUNCTION        1.20          0.494        0.276
  WS02006245           JUNCTION        1.19          0.450        0.400
  WS02006247           JUNCTION        1.19          0.441        0.319
  WS02006248           JUNCTION        1.19          0.380        0.000
  WS02006249           JUNCTION        1.19          0.390        0.000
  WS02006251           JUNCTION        1.07          0.357        0.823
  WS02006252           JUNCTION        1.35          1.100        0.000
  WS02006256           JUNCTION        3.42          2.050        0.000
  YS02001580           JUNCTION        0.29          0.450        0.000
  YS02001583           JUNCTION        0.30          0.500        0.000
  YS02001586           JUNCTION        0.41          0.510        0.000
  YS02001590           JUNCTION        0.47          0.750        0.000
  YS02001593           JUNCTION        0.47          0.840        0.000
  YS02001596           JUNCTION        0.57          0.947        0.123
  YS02001600           JUNCTION        0.69          1.190        0.000
  YS02001601           JUNCTION        1.04          1.440        0.000
  YS02001602           JUNCTION        0.91          1.270        0.000
  YS02001605           JUNCTION        0.86          1.180        0.000
  YS02001607           JUNCTION        0.45          0.665        0.015
  YS02001610           JUNCTION        0.47          0.680        0.000
  YS02001613           JUNCTION        0.44          0.673        0.027
  YS02001616           JUNCTION        0.40          0.610        0.000
  YS02001619           JUNCTION        0.39          0.588        0.022
  YS02001622           JUNCTION        0.39          0.575        0.045
  YS02001625           JUNCTION        0.54          0.780        0.000
  YS02001629           JUNCTION        0.35          0.470        0.000
  YS02001633           JUNCTION        0.56          0.994        0.066
  YS02001641           JUNCTION        0.50          0.961        0.139
  YS02001644           JUNCTION        0.46          0.920        0.000
  YS02001647           JUNCTION        0.30          0.696        0.204
  YS02001649           JUNCTION        0.39          0.847        0.203
  YS02001652           JUNCTION        0.24          0.709        0.421
  YS02001655           JUNCTION        0.14          0.734        0.466
  YS02001658           JUNCTION        0.02          0.695        0.605
  YS02001748           JUNCTION        0.01          0.498        0.692
  YS02001751           JUNCTION        0.06          0.404        0.796
  YS02001754           JUNCTION        0.16          0.498        0.652
  YS02001757           JUNCTION        0.42          0.832        0.378
  YS02001759           JUNCTION        0.35          0.785        0.425
  YS02001762           JUNCTION        0.33          0.775        0.375
  YS02001765           JUNCTION        0.29          0.747        0.353
  YS02001767           JUNCTION        0.27          0.763        0.267
  YS02001770           JUNCTION        0.24          0.920        0.000
  YS02001774           JUNCTION        0.31          0.936        0.114
  YS02001779           JUNCTION        0.17          0.680        0.000
  YS02001783           JUNCTION        0.28          0.442        1.158
  YS02001784           JUNCTION        0.26          0.327        1.163
  YS02001786           JUNCTION        0.17          0.089        1.341
  YS02001882           JUNCTION        0.23          0.763        0.067
  YS02001884           JUNCTION        0.24          0.779        0.091
  YS02001887           JUNCTION        0.27          0.818        0.132
  YS02001890           JUNCTION        0.28          0.760        0.000
  YS02001895           JUNCTION        0.22          0.564        0.186
  YS02001898           JUNCTION        0.22          0.526        0.214
  YS02001901           JUNCTION        0.26          0.674        0.196
  YS02001904           JUNCTION        0.25          0.632        0.218
  YS02001907           JUNCTION        0.46          0.950        0.000
  YS02001910           JUNCTION        0.30          0.963        0.137
  YS02001915           JUNCTION        0.23          0.909        0.091
  YS02001918           JUNCTION        0.16          0.810        0.000
  YS02001920           JUNCTION        0.17          1.140        0.000
  YS02001923           JUNCTION        0.01          0.820        0.000
  YS02001926           JUNCTION        0.01          0.900        0.000
  YS02001929           JUNCTION        0.01          0.780        0.000
  YS02006553           JUNCTION        0.47          0.965        0.225
  YS02006556           JUNCTION        0.38          0.881        0.469
  YS02006558           JUNCTION        0.37          0.853        0.547
  YS02006561           JUNCTION        0.12          0.111        1.039
  YS02163301           JUNCTION        0.54          0.917        0.113
  YS02163601           JUNCTION        0.58          1.047        0.033
  YS02164001           JUNCTION        0.50          0.968        0.132
  
  
  *********************
  Node Flooding Summary
  *********************
  
  Flooding refers to all water that overflows a node, whether it ponds or not.
  --------------------------------------------------------------------------
                                                             Total   Maximum
                                 Maximum   Time of Max       Flood    Ponded
                        Hours       Rate    Occurrence      Volume     Depth
  Node                 Flooded       LPS   days hr:min    10^6 ltr    Meters
  --------------------------------------------------------------------------
  WS02006249              1.06    115.78      0  02:09       0.270     0.000
  WS02006252              0.01    245.63      0  00:00       0.000     0.000
  WS02006256              1.32    293.19      0  00:00       0.451     0.000
  YS02001580              0.01     93.12      0  02:09       0.000     0.000
  YS02001583              0.01    116.76      0  02:09       0.000     0.000
  YS02001586              0.20     88.81      0  02:09       0.037     0.000
  YS02001590              0.01     30.61      0  02:07       0.000     0.000
  YS02001593              0.01     27.60      0  02:07       0.000     0.000
  YS02001600              0.01      0.68      0  02:09       0.000     0.000
  YS02001601              0.35    624.73      0  02:14       0.469     0.000
  YS02001602              0.27     62.00      0  02:19       0.051     0.000
  YS02001605              0.01      2.12      0  02:09       0.000     0.000
  YS02001610              0.22    206.35      0  02:16       0.105     0.000
  YS02001616              0.01      5.75      0  02:09       0.000     0.000
  YS02001625              0.20    664.50      0  02:15       0.219     0.000
  YS02001629              0.02    129.89      0  02:09       0.002     0.000
  YS02001644              0.01     17.99      0  02:13       0.000     0.000
  YS02001770              0.01    165.89      0  02:12       0.000     0.000
  YS02001779              0.01    351.42      0  02:12       0.003     0.000
  YS02001890              0.01     18.41      0  02:11       0.000     0.000
  YS02001907              0.11    754.38      0  02:14       0.126     0.000
  YS02001918              0.01    110.90      0  02:13       0.001     0.000
  YS02001920              0.01     29.26      0  02:13       0.000     0.000
  YS02001923              0.01     49.46      0  02:13       0.000     0.000
  YS02001926              0.01    178.82      0  02:13       0.001     0.000
  YS02001929              0.01    157.63      0  02:13       0.000     0.000
  
  
  **********************
  Storage Volume Summary
  **********************
  
  ------------------------------------------------------------------------------------------------
                         Average    Avg   Evap  Exfil     Maximum    Max    Time of Max    Maximum
                          Volume   Pcnt   Pcnt   Pcnt      Volume   Pcnt     Occurrence    Outflow
  Storage Unit           1000 m³   Full   Loss   Loss     1000 m³   Full    days hr:min        LPS
  ------------------------------------------------------------------------------------------------
  CC-storage               2.189   34.2    0.0    0.0       4.167   65.0       0  02:30    1783.53
  JK-storage               0.144   49.6    0.0    0.0       0.212   72.9       0  02:16    2300.00
  XR-storage               0.939   65.2    0.0    0.0       1.111   77.2       0  08:00     380.00
  
  
  ***********************
  Outfall Loading Summary
  ***********************
  
  -----------------------------------------------------------
                         Flow       Avg       Max       Total
                         Freq      Flow      Flow      Volume
  Outfall Node           Pcnt       LPS       LPS    10^6 ltr
  -----------------------------------------------------------
  CC-1                  26.98    683.00    683.00       3.072
  CC-2                  24.78    683.00    683.00       2.847
  JK-1                   9.92   1000.00   1000.00       1.225
  JK-2                   0.26   1000.00   1000.00       0.048
  WSC                   99.92    362.83    752.69       8.746
  -----------------------------------------------------------
  System                32.37   3728.83   3366.23      15.937
  
  
  ********************
  Link Flow Summary
  ********************
  
  -----------------------------------------------------------------------------
                                 Maximum  Time of Max   Maximum    Max/    Max/
                                  |Flow|   Occurrence   |Veloc|    Full    Full
  Link                 Type          LPS  days hr:min     m/sec    Flow   Depth
  -----------------------------------------------------------------------------
  1                    CONDUIT    752.69     0  02:56      3.08    0.26    0.35
  WS02001211WS02001212 CONDUIT    202.45     0  03:21      0.54    0.15    0.51
  WS02001212WS02001213 CONDUIT    204.30     0  03:34      1.04    0.32    0.36
  WS02001213WS02003059 CONDUIT    209.28     0  03:34      0.47    0.35    0.67
  WS02003059WS02003060 CONDUIT    216.35     0  03:35      0.67    0.14    0.58
  WS02003060WS02003069 CONDUIT    750.82     0  02:54      1.77    0.29    0.40
  WS02003066WSF200     CONDUIT    536.90     0  02:53      2.74    0.09    0.23
  WS02003067WS02003066 CONDUIT    536.87     0  02:53      1.21    0.17    0.42
  WS02003069WS02003072 CONDUIT    751.01     0  02:55      1.51    0.36    0.45
  WS02003072WS02003073 CONDUIT    750.94     0  02:55      1.60    1.62    0.43
  WS02004138WS02004139 CONDUIT    190.84     0  00:29      2.17    0.04    0.33
  WS02004139WS02001211 CONDUIT    193.05     0  03:21      0.54    0.24    0.47
  WS02004401WS02004402 CONDUIT    539.68     0  02:51      0.97    0.65    0.86
  WS02004402WS02004403 CONDUIT    539.16     0  02:51      0.97    0.77    0.88
  WS02004403WS02004404 CONDUIT    538.77     0  02:51      0.92    0.39    0.93
  WS02004404WS02004405 CONDUIT    538.80     0  02:51      1.08    5.28    0.96
  WS02004405WS02004406 CONDUIT    539.04     0  02:51      0.99    1.06    0.96
  WS02004406WS02004407 CONDUIT    538.32     0  02:51      1.04    0.24    0.63
  WS02004407WS02004409 CONDUIT    537.93     0  02:52      1.57    0.19    0.48
  WS02004409WS02004410 CONDUIT    537.56     0  02:52      1.02    0.70    0.67
  WS02004410WS02004411 CONDUIT    537.32     0  02:52      0.95    0.73    0.69
  WS02004411WS02004412 CONDUIT    537.14     0  02:52      0.92    0.76    0.69
  WS02004412WS02004413 CONDUIT    537.08     0  02:40      0.82    0.36    0.78
  WS02004413WS02003067 CONDUIT    536.86     0  02:53      1.11    0.23    0.59
  WS02006109WS02006110 CONDUIT    542.16     0  02:11      1.08    1.04    1.00
  WS02006110WS02006113 CONDUIT    554.84     0  02:11      1.33    0.50    0.78
  WS02006111WS02006112 CONDUIT    543.29     0  02:50      1.82    0.26    0.67
  WS02006112WS02006115 CONDUIT    552.08     0  02:33      0.80    0.33    0.87
  WS02006113WS02006111 CONDUIT    560.03     0  02:50      2.46    0.67    0.46
  WS02006115WS02006116 CONDUIT    541.89     0  02:50      0.97    0.70    0.76
  WS02006116WS02004401 CONDUIT    540.28     0  02:51      0.98    0.74    0.84
  WS02006228WS02006109 CONDUIT    540.53     0  02:11      1.08    2.36    1.00
  WS02006229WS02006228 CONDUIT    540.50     0  02:11      1.15    1.79    1.00
  WS02006230WS02006229 CONDUIT    540.29     0  02:10      1.40   12.02    1.00
  WS02006231WS02006230 CONDUIT    563.53     0  03:15      1.53    8.55    1.00
  WS02006232WS02006231 CONDUIT    570.99     0  03:15      1.48    1.20    1.00
  WS02006234WS02006232 CONDUIT    570.36     0  03:15      1.48    1.15    1.00
  WS02006235WS02006234 CONDUIT    566.47     0  03:15      1.47    5.98    1.00
  WS02006238WS02006235 CONDUIT    417.45     0  03:15      1.57    0.93    1.00
  WS02006239WS02006238 CONDUIT    417.53     0  03:13      1.11    1.34    1.00
  WS02006240WS02006239 CONDUIT    417.45     0  03:13      1.24    1.31    1.00
  WS02006242WS02006240 CONDUIT    415.88     0  03:13      1.12    1.65    1.00
  WS02006243WS02006242 CONDUIT    416.08     0  03:13      1.39    0.89    1.00
  WS02006245WS02006243 CONDUIT    415.85     0  03:16      1.45    1.23    1.00
  WS02006247WS02006245 CONDUIT    416.27     0  03:16      1.44    3.30    1.00
  WS02006248WS02006247 CONDUIT    415.96     0  03:16      1.45    0.91    1.00
  WS02006249WS02006248 CONDUIT    416.63     0  03:15      1.37    2.28    1.00
  WS02006251WS02006249 CONDUIT    458.97     0  00:00      1.99    1.32    1.00
  WS02006252WS02006251 CONDUIT    407.74     0  02:10     25.11    1.50    1.00
  WS02006256WS02006235 CONDUIT    289.22     0  01:58      4.23    3.06    1.00
  WSF200WS02003060     CONDUIT    537.16     0  02:43      1.76    0.12    0.32
  YS02001580YS02001583 CONDUIT    118.83     0  02:09      0.66    0.46    1.00
  YS02001583YS02001586 CONDUIT    165.77     0  02:09      0.68    0.25    1.00
  YS02001586YS02001590 CONDUIT    318.09     0  02:15      1.27    0.56    1.00
  YS02001590YS02001593 CONDUIT    318.10     0  02:15      1.13    2.00    1.00
  YS02001593YS02001596 CONDUIT    317.97     0  02:16      1.73    0.50    1.00
  YS02001596YS02001600 CONDUIT    318.00     0  02:14      1.21    0.62    1.00
  YS02001600YS02001601 CONDUIT    318.12     0  02:20      1.13    0.55    1.00
  YS02001601YS02001602 CONDUIT    516.64     0  02:09      1.83    1.87    1.00
  YS02001602YS02001605 CONDUIT    516.36     0  02:09      1.83   10.93    1.00
  YS02001605YS02001607 CONDUIT    515.58     0  02:09      1.82    2.83    1.00
  YS02001607YS02001610 CONDUIT    516.85     0  02:09      0.66    0.49    1.00
  YS02001610YS02001613 CONDUIT    518.17     0  02:08      0.66    0.60    1.00
  YS02001613YS02001616 CONDUIT    522.27     0  02:08      0.67    0.45    1.00
  YS02001616YS02001619 CONDUIT    503.92     0  02:09      0.66    0.87    1.00
  YS02001619YS02001622 CONDUIT    931.73     0  02:09      1.19    1.37    1.00
  YS02001622YS02001625 CONDUIT    939.15     0  02:09      1.20    0.50    1.00
  YS02001625YS02001629 CONDUIT    939.94     0  02:09      1.20    0.45    1.00
  YS02001629YS02163301 CONDUIT    931.80     0  02:11      1.19    1.15    1.00
  YS02001633YS02163601 CONDUIT   1375.31     0  02:11      1.75    1.44    1.00
  YS02001641YS02001644 CONDUIT   1371.02     0  02:11      1.75    4.43    1.00
  YS02001644YS02001647 CONDUIT   1760.24     0  02:11      2.26    1.03    1.00
  YS02001647YS02001649 CONDUIT   1769.44     0  02:11      2.32    0.93    1.00
  YS02001649YS02001757 CONDUIT   1921.71     0  02:12      2.46    1.17    1.00
  YS02001652YS02001649 CONDUIT    569.18     0  02:15      0.76    0.28    1.00
  YS02001655YS02001652 CONDUIT    570.04     0  02:15      1.30    0.28    1.00
  YS02001658YS02001655 CONDUIT    570.18     0  02:15      1.92    0.24    1.00
  YS02001661YS02001658 CONDUIT    649.46     0  02:13      2.31    0.25    0.91
  YS02001664YS02001661 CONDUIT    484.85     0  02:14      2.25    0.15    0.57
  YS02001745YS02001748 CONDUIT    562.82     0  02:14      2.12    0.22    0.73
  YS02001748YS02001751 CONDUIT    427.81     0  02:17      1.66    0.22    1.00
  YS02001751YS02001754 CONDUIT    353.01     0  02:14      1.44    0.17    1.00
  YS02001754YS02001757 CONDUIT    354.60     0  02:14      0.46    0.14    1.00
  YS02001757CaochengTiaoxuchi CONDUIT   2996.61     0  02:14      3.82    1.30    1.00
  YS02001759YS02001757 CONDUIT   1042.38     0  02:12      1.33    0.74    1.00
  YS02001762YS02001759 CONDUIT    628.66     0  02:12      0.80    0.72    1.00
  YS02001765YS02001762 CONDUIT    620.28     0  02:12      0.79    0.58    1.00
  YS02001767YS02001765 CONDUIT    612.96     0  02:12      0.78    0.77    1.00
  YS02001770YS02001767 CONDUIT    604.92     0  02:12      0.77    2.40    1.00
  YS02001774YS02001770 CONDUIT    420.45     0  02:12      0.54    0.27    1.00
  YS02001779YS02001774 CONDUIT    425.60     0  02:12      0.55    0.21    1.00
  YS02001783YS02001784 CONDUIT   1147.07     0  02:14      2.28    1.58    1.00
  YS02001784YS02001785 CONDUIT   1148.11     0  02:14      2.28    2.67    1.00
  YS02001786YS02001788 CONDUIT   1148.06     0  02:14      2.45    2.21    0.89
  YS02001788YS02001790 CONDUIT   1160.68     0  02:13      2.69    0.86    0.83
  YS02001790YS02001791 CONDUIT   1275.59     0  02:14      3.42    1.39    0.70
  YS02001791YS02001793 CONDUIT   1223.43     0  02:15      6.71    0.53    0.44
  YS02001793JiankangQianchi CONDUIT   1222.63     0  02:15      2.45    0.10    0.65
  YS02001882YS02001884 CONDUIT     66.80     0  02:11      0.10    0.08    1.00
  YS02001884YS02001887 CONDUIT     73.50     0  02:11      0.09    0.10    1.00
  YS02001887YS02001890 CONDUIT    452.15     0  02:13      0.58    0.77    1.00
  YS02001890YS02001895 CONDUIT    456.22     0  02:11      0.58    0.21    1.00
  YS02001895YS02001898 CONDUIT    466.02     0  02:11      0.59    0.81    1.00
  YS02001898YS02001901 CONDUIT    481.84     0  02:11      0.61    0.31    1.00
  YS02001901YS02001904 CONDUIT    486.08     0  02:11      0.62    0.75    1.00
  YS02001904YS02001907 CONDUIT    492.82     0  02:11      0.63    0.17    1.00
  YS02001907YS02006553 CONDUIT    785.56     0  02:22      0.87    0.92    1.00
  YS02001910YS02001907 CONDUIT    924.40     0  02:14      1.18    0.52    1.00
  YS02001915YS02001910 CONDUIT    923.92     0  02:14      1.18    0.46    1.00
  YS02001918YS02001915 CONDUIT    455.25     0  02:14      0.58    0.25    1.00
  YS02001920YS02001918 CONDUIT    455.07     0  02:14      0.65    0.44    1.00
  YS02001923YS02001920 CONDUIT    450.78     0  02:14      0.72    0.20    1.00
  YS02001926YS02001923 CONDUIT    403.04     0  02:14      0.98    0.58    1.00
  YS02001929YS02001926 CONDUIT    400.23     0  02:14      1.15    0.19    1.00
  YS02006553YS02006556 CONDUIT    785.46     0  02:22      1.00    0.67    1.00
  YS02006556YS02006558 CONDUIT    787.56     0  02:21      1.00    0.62    1.00
  YS02006558YS02006561 CONDUIT   1147.26     0  02:13      4.06    2.54    1.00
  YS02006561YS02001783 CONDUIT   1147.16     0  02:14      2.29    0.59    1.00
  YS02163301YS02001633 CONDUIT    930.27     0  02:11      1.18    0.87    1.00
  YS02163601YS02164001 CONDUIT   1373.62     0  02:11      1.75    1.22    1.00
  YS02164001YS02001641 CONDUIT   1370.49     0  02:11      1.74    1.87    1.00
  CC-R1                PUMP       683.00     0  00:00              1.00
  CC-R2                PUMP       683.00     0  00:00              1.00
  CC-S1                PUMP       200.00     0  00:00              1.00
  CC-S2                PUMP       200.00     0  00:00              1.00
  JK-R1                PUMP      1000.00     0  00:00              1.00
  JK-R2                PUMP      1000.00     0  00:00              1.00
  JK-S                 PUMP       300.00     0  00:00              1.00
  XR-1                 PUMP        95.00     0  00:00              1.00
  XR-2                 PUMP        95.00     0  00:00              1.00
  XR-3                 PUMP        95.00     0  00:00              1.00
  XR-4                 PUMP        95.00     0  00:00              1.00
  
  
  ***************************
  Flow Classification Summary
  ***************************
  
  -------------------------------------------------------------------------------------
                      Adjusted    ---------- Fraction of Time in Flow Class ---------- 
                       /Actual         Up    Down  Sub   Sup   Up    Down  Norm  Inlet 
  Conduit               Length    Dry  Dry   Dry   Crit  Crit  Crit  Crit  Ltd   Ctrl  
  -------------------------------------------------------------------------------------
  1                       1.00   0.00  0.00  0.00  0.00  1.00  0.00  0.00  0.14  0.00
  WS02001211WS02001212    1.00   0.00  0.02  0.00  0.98  0.00  0.00  0.00  0.00  0.00
  WS02001212WS02001213    1.00   0.02  0.00  0.00  0.17  0.00  0.80  0.00  0.00  0.00
  WS02001213WS02003059    1.00   0.00  0.01  0.00  0.99  0.00  0.00  0.00  0.00  0.00
  WS02003059WS02003060    1.00   0.00  0.00  0.00  1.00  0.00  0.00  0.00  0.03  0.00
  WS02003060WS02003069    1.00   0.00  0.00  0.00  0.98  0.02  0.00  0.00  0.75  0.00
  WS02003066WSF200        1.00   0.13  0.00  0.00  0.00  0.87  0.00  0.00  0.73  0.00
  WS02003067WS02003066    1.00   0.10  0.02  0.00  0.88  0.00  0.00  0.00  0.00  0.00
  WS02003069WS02003072    1.00   0.00  0.00  0.00  1.00  0.00  0.00  0.00  0.80  0.00
  WS02003072WS02003073    1.00   0.00  0.00  0.00  0.00  0.00  0.00  1.00  0.00  0.00
  WS02004138WS02004139    1.00   0.00  0.00  0.00  0.97  0.01  0.00  0.02  0.98  0.00
  WS02004139WS02001211    1.00   0.00  0.00  0.00  0.99  0.00  0.00  0.00  0.00  0.00
  WS02004401WS02004402    1.00   0.02  0.00  0.00  0.98  0.00  0.00  0.00  0.00  0.00
  WS02004402WS02004403    1.00   0.02  0.00  0.00  0.97  0.00  0.00  0.00  0.00  0.00
  WS02004403WS02004404    1.00   0.00  0.03  0.00  0.97  0.00  0.00  0.00  0.00  0.00
  WS02004404WS02004405    1.00   0.00  0.00  0.00  1.00  0.00  0.00  0.00  0.00  0.00
  WS02004405WS02004406    1.00   0.00  0.00  0.00  1.00  0.00  0.00  0.00  0.00  0.00
  WS02004406WS02004407    1.00   0.00  0.05  0.00  0.95  0.00  0.00  0.00  0.00  0.00
  WS02004407WS02004409    1.00   0.05  0.00  0.00  0.94  0.01  0.00  0.00  0.94  0.00
  WS02004409WS02004410    1.00   0.05  0.00  0.00  0.95  0.00  0.00  0.00  0.03  0.00
  WS02004410WS02004411    1.00   0.05  0.00  0.00  0.95  0.00  0.00  0.00  0.01  0.00
  WS02004411WS02004412    1.00   0.05  0.00  0.00  0.95  0.00  0.00  0.00  0.00  0.00
  WS02004412WS02004413    1.00   0.05  0.00  0.00  0.94  0.00  0.00  0.00  0.01  0.00
  WS02004413WS02003067    1.00   0.06  0.04  0.00  0.00  0.00  0.90  0.00  0.00  0.00
  WS02006109WS02006110    1.00   0.00  0.01  0.00  0.98  0.00  0.01  0.00  0.00  0.00
  WS02006110WS02006113    1.00   0.01  0.01  0.00  0.98  0.00  0.00  0.00  0.00  0.00
  WS02006111WS02006112    1.00   0.02  0.00  0.00  0.98  0.00  0.00  0.00  0.98  0.00
  WS02006112WS02006115    1.00   0.02  0.00  0.00  0.97  0.00  0.00  0.00  0.00  0.00
  WS02006113WS02006111    1.00   0.02  0.00  0.00  0.00  0.98  0.00  0.00  0.07  0.00
  WS02006115WS02006116    1.00   0.02  0.00  0.00  0.97  0.00  0.00  0.01  0.00  0.00
  WS02006116WS02004401    1.00   0.02  0.00  0.00  0.98  0.00  0.00  0.00  0.00  0.00
  WS02006228WS02006109    1.00   0.00  0.00  0.00  1.00  0.00  0.00  0.00  0.00  0.00
  WS02006229WS02006228    1.00   0.00  0.00  0.00  0.99  0.00  0.00  0.01  0.00  0.00
  WS02006230WS02006229    1.00   0.00  0.00  0.00  0.99  0.00  0.00  0.01  0.01  0.00
  WS02006231WS02006230    1.00   0.00  0.00  0.00  0.16  0.00  0.83  0.00  0.00  0.00
  WS02006232WS02006231    1.00   0.00  0.00  0.00  0.99  0.00  0.01  0.00  0.00  0.00
  WS02006234WS02006232    1.00   0.00  0.00  0.00  1.00  0.00  0.00  0.00  0.43  0.00
  WS02006235WS02006234    1.00   0.00  0.00  0.00  0.51  0.00  0.49  0.00  0.00  0.00
  WS02006238WS02006235    1.00   0.00  0.00  0.00  1.00  0.00  0.00  0.00  0.00  0.00
  WS02006239WS02006238    1.00   0.00  0.00  0.00  1.00  0.00  0.00  0.00  0.58  0.00
  WS02006240WS02006239    1.00   0.00  0.00  0.00  0.36  0.00  0.00  0.64  0.01  0.00
  WS02006242WS02006240    1.00   0.00  0.00  0.00  1.00  0.00  0.00  0.00  0.00  0.00
  WS02006243WS02006242    1.00   0.00  0.00  0.00  0.99  0.00  0.00  0.01  0.77  0.00
  WS02006245WS02006243    1.00   0.00  0.00  0.00  0.40  0.00  0.00  0.60  0.02  0.00
  WS02006247WS02006245    1.00   0.00  0.00  0.00  0.97  0.00  0.00  0.03  0.00  0.00
  WS02006248WS02006247    1.00   0.00  0.00  0.00  0.99  0.00  0.00  0.01  0.23  0.00
  WS02006249WS02006248    1.00   0.00  0.00  0.00  0.28  0.00  0.72  0.00  0.00  0.00
  WS02006251WS02006249    1.00   0.00  0.00  0.00  0.99  0.01  0.00  0.00  0.76  0.00
  WS02006252WS02006251    1.00   0.00  0.78  0.00  0.13  0.00  0.09  0.00  0.01  0.00
  WS02006256WS02006235    1.00   0.00  0.00  0.00  1.00  0.00  0.00  0.00  0.00  0.00
  WSF200WS02003060        1.00   0.00  0.13  0.00  0.72  0.15  0.00  0.00  0.71  0.00
  YS02001580YS02001583    1.00   0.27  0.58  0.00  0.15  0.00  0.00  0.00  0.67  0.00
  YS02001583YS02001586    1.00   0.49  0.30  0.00  0.20  0.00  0.00  0.00  0.68  0.00
  YS02001586YS02001590    1.00   0.13  0.00  0.00  0.38  0.04  0.00  0.46  0.35  0.00
  YS02001590YS02001593    1.00   0.13  0.01  0.00  0.07  0.00  0.79  0.00  0.00  0.00
  YS02001593YS02001596    1.00   0.14  0.00  0.00  0.09  0.01  0.00  0.77  0.02  0.00
  YS02001596YS02001600    1.00   0.14  0.00  0.00  0.15  0.01  0.00  0.69  0.05  0.00
  YS02001600YS02001601    1.00   0.13  0.01  0.00  0.86  0.00  0.00  0.00  0.64  0.00
  YS02001601YS02001602    1.00   0.13  0.01  0.00  0.86  0.00  0.00  0.00  0.00  0.00
  YS02001602YS02001605    1.00   0.14  0.00  0.00  0.86  0.00  0.00  0.00  0.00  0.00
  YS02001605YS02001607    1.00   0.14  0.00  0.00  0.86  0.00  0.00  0.00  0.00  0.00
  YS02001607YS02001610    1.00   0.13  0.01  0.00  0.86  0.00  0.00  0.00  0.02  0.00
  YS02001610YS02001613    1.00   0.13  0.00  0.00  0.87  0.00  0.00  0.00  0.01  0.00
  YS02001613YS02001616    1.00   0.13  0.00  0.00  0.87  0.00  0.00  0.00  0.01  0.00
  YS02001616YS02001619    1.00   0.13  0.00  0.00  0.87  0.00  0.00  0.00  0.00  0.00
  YS02001619YS02001622    1.00   0.13  0.00  0.00  0.87  0.00  0.00  0.00  0.35  0.00
  YS02001622YS02001625    1.00   0.13  0.00  0.00  0.87  0.00  0.00  0.00  0.06  0.00
  YS02001625YS02001629    1.00   0.13  0.06  0.00  0.11  0.00  0.70  0.00  0.00  0.00
  YS02001629YS02163301    1.00   0.16  0.01  0.00  0.83  0.00  0.00  0.00  0.00  0.00
  YS02001633YS02163601    1.00   0.00  0.01  0.00  0.99  0.00  0.00  0.00  0.15  0.00
  YS02001641YS02001644    1.00   0.00  0.01  0.00  0.99  0.00  0.00  0.00  0.00  0.00
  YS02001644YS02001647    1.00   0.00  0.18  0.00  0.82  0.00  0.00  0.00  0.00  0.00
  YS02001647YS02001649    1.00   0.00  0.18  0.00  0.53  0.29  0.00  0.00  0.59  0.00
  YS02001649YS02001757    1.00   0.00  0.00  0.00  0.68  0.32  0.00  0.00  0.56  0.00
  YS02001652YS02001649    1.00   0.00  0.00  0.00  0.96  0.04  0.00  0.00  0.80  0.00
  YS02001655YS02001652    1.00   0.00  0.00  0.00  0.12  0.02  0.00  0.86  0.05  0.00
  YS02001658YS02001655    1.00   0.00  0.14  0.00  0.63  0.23  0.00  0.00  0.75  0.00
  YS02001661YS02001658    1.00   0.14  0.00  0.00  0.49  0.36  0.00  0.00  0.75  0.00
  YS02001664YS02001661    1.00   0.13  0.00  0.00  0.78  0.09  0.00  0.00  0.87  0.00
  YS02001745YS02001748    1.00   0.00  0.00  0.00  0.05  0.01  0.00  0.95  0.04  0.00
  YS02001748YS02001751    1.00   0.00  0.00  0.00  0.81  0.19  0.00  0.00  0.79  0.00
  YS02001751YS02001754    1.00   0.00  0.00  0.00  0.10  0.01  0.00  0.90  0.02  0.00
  YS02001754YS02001757    1.00   0.00  0.00  0.00  1.00  0.00  0.00  0.00  0.89  0.00
  YS02001757CaochengTiaoxuchi    1.00   0.00  0.00  0.00  1.00  0.00  0.00  0.00  0.89  0.00
  YS02001759YS02001757    1.00   0.00  0.00  0.00  1.00  0.00  0.00  0.00  0.64  0.00
  YS02001762YS02001759    1.00   0.00  0.00  0.00  1.00  0.00  0.00  0.00  0.05  0.00
  YS02001765YS02001762    1.00   0.00  0.00  0.00  1.00  0.00  0.00  0.00  0.78  0.00
  YS02001767YS02001765    1.00   0.00  0.00  0.00  1.00  0.00  0.00  0.00  0.00  0.00
  YS02001770YS02001767    1.00   0.00  0.00  0.00  1.00  0.00  0.00  0.00  0.00  0.00
  YS02001774YS02001770    1.00   0.00  0.13  0.00  0.60  0.00  0.27  0.00  0.04  0.00
  YS02001779YS02001774    1.00   0.00  0.00  0.00  1.00  0.00  0.00  0.00  0.82  0.00
  YS02001783YS02001784    1.00   0.00  0.19  0.00  0.81  0.00  0.00  0.00  0.58  0.00
  YS02001784YS02001785    1.00   0.00  0.00  0.00  1.00  0.00  0.00  0.00  0.18  0.00
  YS02001786YS02001788    1.00   0.00  0.00  0.00  0.80  0.20  0.00  0.00  0.00  0.00
  YS02001788YS02001790    1.00   0.00  0.00  0.00  0.21  0.79  0.00  0.00  0.85  0.00
  YS02001790YS02001791    1.00   0.00  0.00  0.00  0.01  0.99  0.00  0.00  0.15  0.00
  YS02001791YS02001793    1.00   0.00  0.00  0.00  0.00  1.00  0.00  0.00  0.00  0.00
  YS02001793JiankangQianchi    1.00   0.00  0.00  0.00  0.99  0.01  0.00  0.00  0.98  0.00
  YS02001882YS02001884    1.00   0.16  0.01  0.00  0.83  0.00  0.00  0.00  0.00  0.00
  YS02001884YS02001887    1.00   0.06  0.05  0.00  0.89  0.00  0.00  0.00  0.00  0.00
  YS02001887YS02001890    1.00   0.00  0.00  0.00  0.97  0.00  0.03  0.00  0.00  0.00
  YS02001890YS02001895    1.00   0.00  0.17  0.00  0.83  0.00  0.00  0.00  0.00  0.00
  YS02001895YS02001898    1.00   0.18  0.00  0.00  0.80  0.00  0.02  0.00  0.00  0.00
  YS02001898YS02001901    1.00   0.18  0.00  0.00  0.82  0.00  0.00  0.00  0.01  0.00
  YS02001901YS02001904    1.00   0.17  0.00  0.00  0.83  0.00  0.00  0.00  0.00  0.00
  YS02001904YS02001907    1.00   0.00  0.17  0.00  0.83  0.00  0.00  0.00  0.00  0.00
  YS02001907YS02006553    1.00   0.00  0.02  0.00  0.98  0.00  0.00  0.00  0.00  0.00
  YS02001910YS02001907    1.00   0.00  0.00  0.00  0.97  0.00  0.00  0.03  0.12  0.00
  YS02001915YS02001910    1.00   0.00  0.00  0.00  0.96  0.04  0.00  0.00  0.17  0.00
  YS02001918YS02001915    1.00   0.00  0.01  0.00  0.98  0.02  0.00  0.00  0.79  0.00
  YS02001920YS02001918    1.00   0.00  0.01  0.00  0.99  0.00  0.00  0.00  0.00  0.00
  YS02001923YS02001920    1.00   0.00  0.00  0.00  1.00  0.00  0.00  0.00  0.96  0.00
  YS02001926YS02001923    1.00   0.00  0.07  0.00  0.03  0.00  0.90  0.00  0.00  0.00
  YS02001929YS02001926    1.00   0.00  0.13  0.00  0.87  0.00  0.00  0.00  0.85  0.00
  YS02006553YS02006556    1.00   0.01  0.00  0.00  0.99  0.00  0.00  0.00  0.03  0.00
  YS02006556YS02006558    1.00   0.00  0.00  0.00  1.00  0.00  0.00  0.00  0.00  0.00
  YS02006558YS02006561    1.00   0.19  0.00  0.00  0.03  0.78  0.00  0.00  0.18  0.00
  YS02006561YS02001783    1.00   0.19  0.00  0.00  0.05  0.76  0.00  0.00  0.72  0.00
  YS02163301YS02001633    1.00   0.00  0.16  0.00  0.84  0.00  0.00  0.00  0.00  0.00
  YS02163601YS02164001    1.00   0.00  0.08  0.00  0.92  0.00  0.00  0.00  0.00  0.00
  YS02164001YS02001641    1.00   0.01  0.07  0.00  0.92  0.00  0.00  0.00  0.06  0.00
  
  
  *************************
  Conduit Surcharge Summary
  *************************
  
  ----------------------------------------------------------------------------
                                                           Hours        Hours 
                         --------- Hours Full --------   Above Full   Capacity
  Conduit                Both Ends  Upstream  Dnstream   Normal Flow   Limited
  ----------------------------------------------------------------------------
  WS02003072WS02003073        0.01      0.01      0.01      1.35         0.01
  WS02004404WS02004405        0.01      0.01      0.01      1.60         0.01
  WS02004405WS02004406        0.01      0.01      0.01      0.99         0.01
  WS02006109WS02006110        1.04      1.04      1.26      1.05         0.01
  WS02006110WS02006113        0.01      0.01      1.24      0.01         0.01
  WS02006111WS02006112        0.01      0.01      1.30      0.01         0.01
  WS02006112WS02006115        0.01      0.01      1.00      0.01         0.01
  WS02006228WS02006109        1.21      1.26      1.21      1.39         1.21
  WS02006229WS02006228        1.21      1.22      1.21      1.34         1.21
  WS02006230WS02006229        1.29      1.31      1.29      2.04         1.29
  WS02006231WS02006230        1.04      1.04      1.07      1.76         0.01
  WS02006232WS02006231        1.06      1.06      1.27      1.07         0.01
  WS02006234WS02006232        1.19      1.19      1.27      1.07         1.07
  WS02006235WS02006234        1.15      1.15      1.22      1.69         0.01
  WS02006238WS02006235        1.23      1.23      1.26      0.01         0.01
  WS02006239WS02006238        1.21      1.22      1.24      1.22         1.11
  WS02006240WS02006239        1.20      1.20      1.20      1.23         1.07
  WS02006242WS02006240        1.20      1.20      1.22      1.27         0.01
  WS02006243WS02006242        1.20      1.20      1.21      0.01         0.01
  WS02006245WS02006243        1.20      1.20      1.20      0.19         0.26
  WS02006247WS02006245        1.19      1.20      1.19      1.47         1.19
  WS02006248WS02006247        1.19      1.19      1.19      0.01         0.01
  WS02006249WS02006248        1.19      1.19      1.19      1.46         0.01
  WS02006251WS02006249        1.18      1.18      1.19      1.28         1.17
  WS02006252WS02006251        1.34      1.34      1.34      1.35         0.01
  WS02006256WS02006235        1.71      1.72      3.41      1.32         0.01
  YS02001580YS02001583        0.29      0.29      0.33      0.01         0.01
  YS02001583YS02001586        0.30      0.30      0.41      0.01         0.01
  YS02001586YS02001590        0.42      0.42      0.47      0.01         0.01
  YS02001590YS02001593        0.47      0.47      0.49      0.50         0.01
  YS02001593YS02001596        0.49      0.49      0.57      0.01         0.01
  YS02001596YS02001600        0.61      0.61      0.69      0.01         0.01
  YS02001600YS02001601        0.75      0.75      1.04      0.01         0.01
  YS02001601YS02001602        0.91      0.91      1.09      0.70         0.01
  YS02001602YS02001605        0.86      0.86      0.91      1.91         0.01
  YS02001605YS02001607        0.82      0.86      0.82      0.99         0.82
  YS02001607YS02001610        0.45      0.45      0.47      0.01         0.01
  YS02001610YS02001613        0.44      0.44      0.47      0.01         0.01
  YS02001613YS02001616        0.40      0.40      0.44      0.01         0.01
  YS02001616YS02001619        0.39      0.39      0.40      0.01         0.01
  YS02001619YS02001622        0.39      0.39      0.39      0.50         0.37
  YS02001622YS02001625        0.39      0.39      0.54      0.01         0.01
  YS02001625YS02001629        0.35      0.35      0.54      0.01         0.01
  YS02001629YS02163301        0.53      0.53      0.54      0.12         0.14
  YS02001633YS02163601        0.56      0.56      0.58      0.30         0.29
  YS02001641YS02001644        0.46      0.50      0.46      1.15         0.46
  YS02001644YS02001647        0.30      0.30      0.46      0.02         0.01
  YS02001647YS02001649        0.30      0.30      0.39      0.01         0.01
  YS02001649YS02001757        0.38      0.39      0.42      0.14         0.11
  YS02001652YS02001649        0.25      0.25      0.39      0.01         0.01
  YS02001655YS02001652        0.14      0.14      0.24      0.01         0.01
  YS02001658YS02001655        0.02      0.02      0.14      0.01         0.01
  YS02001661YS02001658        0.01      0.01      0.02      0.01         0.01
  YS02001745YS02001748        0.01      0.01      0.01      0.01         0.01
  YS02001748YS02001751        0.01      0.01      0.06      0.01         0.01
  YS02001751YS02001754        0.06      0.06      0.16      0.01         0.01
  YS02001754YS02001757        0.20      0.20      0.42      0.01         0.01
  YS02001757CaochengTiaoxuchi        0.42      0.42      0.95      0.16         0.16
  YS02001759YS02001757        0.35      0.35      0.42      0.01         0.01
  YS02001762YS02001759        0.33      0.33      0.35      0.01         0.01
  YS02001765YS02001762        0.29      0.29      0.33      0.01         0.01
  YS02001767YS02001765        0.27      0.27      0.29      0.01         0.01
  YS02001770YS02001767        0.27      0.27      0.27      0.27         0.18
  YS02001774YS02001770        0.24      0.24      0.31      0.01         0.01
  YS02001779YS02001774        0.17      0.17      0.31      0.01         0.01
  YS02001783YS02001784        0.26      0.28      0.26      0.40         0.26
  YS02001784YS02001785        0.17      0.26      0.17      0.58         0.17
  YS02001786YS02001788        0.01      0.17      0.01      0.49         0.01
  YS02001790YS02001791        0.01      0.01      0.01      0.25         0.01
  YS02001793JiankangQianchi        0.01      0.01      7.69      0.01         0.01
  YS02001882YS02001884        0.23      0.23      0.24      0.01         0.01
  YS02001884YS02001887        0.26      0.26      0.27      0.01         0.01
  YS02001887YS02001890        0.28      0.28      0.29      0.01         0.01
  YS02001890YS02001895        0.22      0.22      0.31      0.01         0.01
  YS02001895YS02001898        0.22      0.22      0.22      0.01         0.01
  YS02001898YS02001901        0.23      0.23      0.26      0.01         0.01
  YS02001901YS02001904        0.25      0.25      0.26      0.01         0.01
  YS02001904YS02001907        0.25      0.25      0.47      0.01         0.01
  YS02001907YS02006553        0.59      0.59      0.65      0.01         0.01
  YS02001910YS02001907        0.30      0.30      0.46      0.01         0.01
  YS02001915YS02001910        0.23      0.23      0.30      0.01         0.01
  YS02001918YS02001915        0.16      0.16      0.23      0.01         0.01
  YS02001920YS02001918        0.16      0.16      0.17      0.01         0.01
  YS02001923YS02001920        0.10      0.10      0.17      0.01         0.01
  YS02001926YS02001923        0.01      0.01      0.01      0.01         0.01
  YS02001929YS02001926        0.01      0.01      0.01      0.01         0.01
  YS02006553YS02006556        0.38      0.38      0.47      0.01         0.01
  YS02006556YS02006558        0.43      0.43      0.48      0.01         0.01
  YS02006558YS02006561        0.19      0.37      0.19      0.55         0.19
  YS02006561YS02001783        0.12      0.12      0.28      0.01         0.01
  YS02163301YS02001633        0.54      0.54      0.57      0.01         0.01
  YS02163601YS02164001        0.50      0.50      0.58      0.06         0.01
  YS02164001YS02001641        0.50      0.50      0.50      0.58         0.47
  
  
  ***************
  Pumping Summary
  ***************
  
  ---------------------------------------------------------------------------------------------------------
                                                  Min       Avg       Max     Total     Power    % Time Off
                        Percent   Number of      Flow      Flow      Flow    Volume     Usage    Pump Curve
  Pump                 Utilized   Start-Ups       LPS       LPS       LPS  10^6 ltr     Kw-hr    Low   High
  ---------------------------------------------------------------------------------------------------------
  CC-R1                   15.61          11      0.00    683.00    683.00     3.070     55.62    0.0   31.8
  CC-R2                   14.46          11      0.00    683.00    683.00     2.845     51.45    0.0   34.3
  CC-S1                   19.03          11      0.00    200.00    200.00     1.096      6.69    0.0    0.0
  CC-S2                   16.82          11      0.00    200.00    200.00     0.969      5.92    0.0    0.0
  JK-R1                    4.24           8      0.00   1000.00   1000.00     1.222     14.39    0.0    0.0
  JK-R2                    0.16           1      0.00   1000.00   1000.00     0.047      0.36    0.0    0.0
  JK-S                    16.52           4      0.00    300.00    300.00     1.427     19.79    0.0    0.0
  XR-1                    97.91           2      0.00     95.00     95.00     2.679      9.60    0.0    0.0
  XR-2                    93.94           2      0.00     95.00     95.00     2.570      8.76    0.0    0.0
  XR-3                     0.00           1      0.00     95.00     95.00     0.000      0.00    0.0    0.0
  XR-4                     0.00           1      0.00     95.00     95.00     0.000      0.00    0.0    0.0
  

  Analysis begun on:  Wed Nov  5 16:30:47 2025
  Analysis ended on:  Wed Nov  5 16:30:50 2025
  Total elapsed time: 00:00:03