
  EPA STORM WATER MANAGEMENT MODEL - VERSION 5.2 (Build 5.2.4)
  PYSWMM TOOLKIT API - VERSION v1.0 (2023-11-27)
  ------------------------------------------------------------

  WARNING 04: minimum elevation drop used for Conduit WS02004404WS02004405
  WARNING 03: negative offset ignored for Link YS02001904YS02001907
  
  ****************
  Analysis Options
  ****************
  Flow Units ............... LPS
  Process Models:
    Rainfall/Runoff ........ YES
    RDII ................... NO
    Snowmelt ............... NO
    Groundwater ............ NO
    Flow Routing ........... YES
    Ponding Allowed ........ NO
    Water Quality .......... NO
  Infiltration Method ...... HORTON
  Flow Routing Method ...... DYNWAVE
  Surcharge Method ......... EXTRAN
  Starting Date ............ 08/28/2015 08:00:00
  Ending Date .............. 08/28/2015 16:00:00
  Antecedent Dry Days ...... 8.0
  Report Time Step ......... 00:01:00
  Wet Time Step ............ 00:01:00
  Dry Time Step ............ 00:01:00
  Routing Time Step ........ 30.00 sec
  Variable Time Step ....... YES
  Maximum Trials ........... 8
  Number of Threads ........ 4
  Head Tolerance ........... 0.001500 m
  
  
  **************************        Volume         Depth
  Runoff Quantity Continuity     hectare-m            mm
  **************************     ---------       -------
  Initial LID Storage ......         0.049         1.488
  Total Precipitation ......         1.819        54.840
  Evaporation Loss .........         0.000         0.000
  Infiltration Loss ........         0.076         2.285
  Surface Runoff ...........         1.334        40.228
  Final Storage ............         0.459        13.830
  Continuity Error (%) .....        -0.027
  
  
  **************************        Volume        Volume
  Flow Routing Continuity        hectare-m      10^6 ltr
  **************************     ---------     ---------
  Dry Weather Inflow .......         0.602         6.020
  Wet Weather Inflow .......         1.334        13.344
  Groundwater Inflow .......         0.000         0.000
  RDII Inflow ..............         0.000         0.000
  External Inflow ..........         0.105         1.045
  External Outflow .........         1.790        17.899
  Flooding Loss ............         0.223         2.232
  Evaporation Loss .........         0.000         0.000
  Exfiltration Loss ........         0.000         0.000
  Initial Stored Volume ....         0.303         3.031
  Final Stored Volume ......         0.337         3.367
  Continuity Error (%) .....        -0.250
  
  
  *************************
  Highest Continuity Errors
  *************************
  Node YS02001583 (-9.39%)
  Node YS02001884 (4.96%)
  Node YS02001774 (1.76%)
  
  
  ***************************
  Time-Step Critical Elements
  ***************************
  Link WS02004404WS02004405 (38.08%)
  Link WS02006238WS02006235 (18.89%)
  Link WS02006252WS02006251 (11.06%)
  Link YS02001791YS02001793 (9.06%)
  Link WS02003066WSF200 (6.48%)
  
  
  ********************************
  Highest Flow Instability Indexes
  ********************************
  Link WS02006113WS02006111 (28)
  Link WS02006252WS02006251 (27)
  Link WS02006238WS02006235 (19)
  Link WS02006229WS02006228 (17)
  Link WS02006111WS02006112 (17)
  
  
  *********************************
  Most Frequent Nonconverging Nodes
  *********************************
  Node CC-1 (17.53%)
  Node CC-2 (17.53%)
  Node JK-1 (17.53%)
  Node JK-2 (17.53%)
  Node WSC (17.53%)
  
  
  *************************
  Routing Time Step Summary
  *************************
  Minimum Time Step           :     0.01 sec
  Average Time Step           :     3.52 sec
  Maximum Time Step           :     7.04 sec
  % of Time in Steady State   :     0.00
  Average Iterations per Step :     3.49
  % of Steps Not Converging   :    17.53
  Time Step Frequencies       :
     30.000 - 13.228 sec      :     0.00 %
     13.228 -  5.833 sec      :    25.91 %
      5.833 -  2.572 sec      :    34.60 %
      2.572 -  1.134 sec      :    26.55 %
      1.134 -  0.500 sec      :    12.93 %
  
  
  ***************************
  Subcatchment Runoff Summary
  ***************************
  
  ------------------------------------------------------------------------------------------------------------------------------
                            Total      Total      Total      Total     Imperv       Perv      Total       Total     Peak  Runoff
                           Precip      Runon       Evap      Infil     Runoff     Runoff     Runoff      Runoff   Runoff   Coeff
  Subcatchment                 mm         mm         mm         mm         mm         mm         mm    10^6 ltr      LPS
  ------------------------------------------------------------------------------------------------------------------------------
  sub60                     54.84       0.00       0.00       1.38      36.32       3.70      40.02        0.53   305.98   0.730
  sub61                     54.84       0.00       0.00       2.11      36.29       5.51      41.79        0.77   443.49   0.762
  sub62                     54.84       0.00       0.00       0.94      38.68       2.51      41.19        1.13   610.68   0.751
  sub63                     54.84       0.00       0.00       3.84      31.08       9.18      40.25        0.91   491.71   0.734
  sub64                     54.84       0.00       0.00       1.85      35.38       4.56      39.94        0.96   493.06   0.728
  sub65                     54.84       0.00       0.00       1.70      38.19       4.16      42.35        1.17   575.96   0.772
  sub66                     54.84       0.00       0.00       4.43      30.04       8.18      38.22        1.78   733.19   0.697
  sub67                     54.84       0.00       0.00       0.93      39.66       2.60      42.26        0.79   476.46   0.771
  sub68                     54.84       0.00       0.00       1.62      35.02       4.23      39.25        1.08   604.27   0.716
  sub69                     54.84       0.00       0.00       1.47      36.86       5.05      41.91        1.55   749.13   0.764
  sub70                     54.84       0.00       0.00       4.84      29.52      10.42      39.95        1.15   426.35   0.728
  sub71                     54.84       0.00       0.00       0.86      35.14       2.27      37.41        0.98   502.50   0.682
  sub72                     54.84       0.00       0.00       0.82      37.95       2.11      40.06        0.55   258.27   0.731
  

  ***********************
  LID Performance Summary
  ***********************

  --------------------------------------------------------------------------------------------------------------------
                                         Total      Evap     Infil   Surface    Drain    Initial     Final  Continuity
                                        Inflow      Loss      Loss   Outflow   Outflow   Storage   Storage       Error
  Subcatchment      LID Control             mm        mm        mm        mm        mm        mm        mm           %
  --------------------------------------------------------------------------------------------------------------------
  sub60             GreenRoof            54.84      0.00      0.00      0.00      0.00      7.05     61.92       -0.05
  sub61             GreenRoof            54.84      0.00      0.00      0.00      0.00      7.05     61.92       -0.05
  sub62             GreenRoof            54.84      0.00      0.00      0.00      0.00      7.05     61.92       -0.05
  sub63             GreenRoof            54.84      0.00      0.00      0.00      0.00      7.05     61.92       -0.05
  sub64             GreenRoof            54.84      0.00      0.00      0.00      0.00      7.05     61.92       -0.05
  sub65             GreenRoof            54.84      0.00      0.00      0.00      0.00      7.05     61.92       -0.05
  sub66             GreenRoof            54.84      0.00      0.00      0.00      0.00      7.05     61.92       -0.05
  sub67             GreenRoof            54.84      0.00      0.00      0.00      0.00      7.05     61.92       -0.05
  sub68             GreenRoof            54.84      0.00      0.00      0.00      0.00      7.05     61.92       -0.05
  sub69             GreenRoof            54.84      0.00      0.00      0.00      0.00      7.05     61.92       -0.05
  sub70             GreenRoof            54.84      0.00      0.00      0.00      0.00      7.05     61.92       -0.05
  sub71             GreenRoof            54.84      0.00      0.00      0.00      0.00      7.05     61.92       -0.05
  sub72             GreenRoof            54.84      0.00      0.00      0.00      0.00      7.05     61.92       -0.05
  
  ******************
  Node Depth Summary
  ******************
  
  ---------------------------------------------------------------------------------
                                 Average  Maximum  Maximum  Time of Max    Reported
                                   Depth    Depth      HGL   Occurrence   Max Depth
  Node                 Type       Meters   Meters   Meters  days hr:min      Meters
  ---------------------------------------------------------------------------------
  WS02001211           JUNCTION     0.60     0.64     5.48     0  02:32        0.64
  WS02001212           JUNCTION     0.33     0.38     5.45     0  02:30        0.38
  WS02001213           JUNCTION     0.53     0.65     5.41     0  02:30        0.65
  WS02003059           JUNCTION     0.59     0.72     5.40     0  02:30        0.72
  WS02003060           JUNCTION     0.30     0.45     5.38     0  02:29        0.45
  WS02003066           JUNCTION     0.16     0.30     5.85     0  02:28        0.30
  WS02003067           JUNCTION     0.43     0.70     6.02     0  02:28        0.70
  WS02003069           JUNCTION     0.33     0.51     5.10     0  02:29        0.51
  WS02003072           JUNCTION     0.40     0.58     4.95     0  02:30        0.58
  WS02003073           JUNCTION     0.23     0.35     4.41     0  02:31        0.35
  WS02004138           JUNCTION     0.13     0.14     7.39     0  00:29        0.14
  WS02004139           JUNCTION     0.54     0.58     5.49     0  02:32        0.58
  WS02004401           JUNCTION     0.52     0.85     6.85     0  02:26        0.85
  WS02004402           JUNCTION     0.55     0.88     6.84     0  02:26        0.88
  WS02004403           JUNCTION     0.57     0.89     6.82     0  02:26        0.89
  WS02004404           JUNCTION     0.65     0.96     6.81     0  02:26        0.96
  WS02004405           JUNCTION     0.64     0.96     6.81     0  02:26        0.96
  WS02004406           JUNCTION     0.66     0.96     6.79     0  02:26        0.96
  WS02004407           JUNCTION     0.14     0.30     6.61     0  02:27        0.30
  WS02004409           JUNCTION     0.31     0.67     6.44     0  02:27        0.67
  WS02004410           JUNCTION     0.34     0.68     6.40     0  02:27        0.68
  WS02004411           JUNCTION     0.36     0.69     6.37     0  02:28        0.69
  WS02004412           JUNCTION     0.38     0.70     6.34     0  02:28        0.70
  WS02004413           JUNCTION     0.54     0.86     6.33     0  02:28        0.86
  WS02006109           JUNCTION     0.57     1.15     7.77     0  03:03        0.98
  WS02006110           JUNCTION     0.57     1.15     7.74     0  03:03        0.94
  WS02006111           JUNCTION     0.14     0.29     6.99     0  02:21        0.29
  WS02006112           JUNCTION     0.66     1.10     6.98     0  02:58        1.06
  WS02006113           JUNCTION     0.21     0.46     7.35     0  02:46        0.46
  WS02006115           JUNCTION     0.40     0.75     6.89     0  02:25        0.75
  WS02006116           JUNCTION     0.49     0.83     6.87     0  02:26        0.83
  WS02006228           JUNCTION     0.56     1.18     7.83     0  03:03        1.06
  WS02006229           JUNCTION     0.53     1.24     7.94     0  01:57        1.24
  WS02006230           JUNCTION     0.53     1.29     8.03     0  03:03        1.19
  WS02006231           JUNCTION     0.34     1.07     8.19     0  03:03        1.00
  WS02006232           JUNCTION     0.47     1.36     8.40     0  03:03        1.33
  WS02006234           JUNCTION     0.40     1.50     8.65     0  03:03        1.50
  WS02006235           JUNCTION     0.44     1.68     8.84     0  03:03        1.68
  WS02006238           JUNCTION     0.47     1.74     8.89     0  03:03        1.74
  WS02006239           JUNCTION     0.43     1.77     8.98     0  03:03        1.77
  WS02006240           JUNCTION     0.40     1.71     9.00     0  03:03        1.71
  WS02006242           JUNCTION     0.45     1.55     8.82     0  03:03        1.55
  WS02006243           JUNCTION     0.38     1.48     8.90     0  03:03        1.48
  WS02006245           JUNCTION     0.39     1.39     8.87     0  03:03        1.39
  WS02006247           JUNCTION     0.40     1.30     8.80     0  03:03        1.30
  WS02006248           JUNCTION     0.37     1.10     8.69     0  01:57        1.10
  WS02006249           JUNCTION     0.40     1.09     8.69     0  01:52        1.09
  WS02006251           JUNCTION     0.39     1.39     9.06     0  01:52        1.14
  WS02006252           JUNCTION     0.27     1.50     9.74     0  00:00        0.70
  WS02006256           JUNCTION     1.08     2.35     9.28     0  00:00        2.35
  WSF200               JUNCTION     0.13     0.31     5.54     0  02:29        0.31
  YS02001580           JUNCTION     0.11     1.05     9.59     0  01:47        0.93
  YS02001583           JUNCTION     0.14     1.14     9.64     0  01:47        0.82
  YS02001586           JUNCTION     0.23     1.13     9.30     0  01:46        1.13
  YS02001590           JUNCTION     0.34     1.40     9.26     0  01:45        1.37
  YS02001593           JUNCTION     0.28     1.46     9.32     0  01:45        1.30
  YS02001596           JUNCTION     0.39     1.72     9.14     0  01:57        1.72
  YS02001600           JUNCTION     0.48     1.87     9.00     0  01:45        1.87
  YS02001601           JUNCTION     0.66     2.06     8.90     0  01:45        2.06
  YS02001602           JUNCTION     0.57     1.87     8.77     0  01:47        1.87
  YS02001605           JUNCTION     0.52     1.78     8.68     0  01:47        1.78
  YS02001607           JUNCTION     0.49     1.68     8.53     0  01:57        1.64
  YS02001610           JUNCTION     0.53     1.68     8.48     0  01:47        1.68
  YS02001613           JUNCTION     0.49     1.70     8.54     0  01:47        1.65
  YS02001616           JUNCTION     0.42     1.61     8.52     0  01:47        1.58
  YS02001619           JUNCTION     0.40     1.61     8.54     0  01:47        1.57
  YS02001622           JUNCTION     0.39     1.62     8.52     0  01:47        1.55
  YS02001625           JUNCTION     0.65     1.78     8.38     0  01:47        1.78
  YS02001629           JUNCTION     0.53     1.85     8.40     0  01:47        1.85
  YS02001633           JUNCTION     0.60     2.08     8.53     0  01:48        1.98
  YS02001641           JUNCTION     0.56     2.10     8.54     0  01:57        1.92
  YS02001644           JUNCTION     0.55     1.92     8.35     0  01:48        1.91
  YS02001647           JUNCTION     0.33     1.90     8.51     0  01:48        1.65
  YS02001649           JUNCTION     0.38     1.87     8.26     0  01:51        1.79
  YS02001652           JUNCTION     0.26     1.84     8.43     0  02:01        1.61
  YS02001655           JUNCTION     0.19     2.20     9.05     0  02:01        1.38
  YS02001658           JUNCTION     0.13     1.74     8.88     0  01:51        1.10
  YS02001661           JUNCTION     0.15     0.86     8.27     0  01:51        0.86
  YS02001664           JUNCTION     0.07     0.27     8.19     0  01:50        0.27
  YS02001745           JUNCTION     0.06     0.60     8.12     0  01:51        0.50
  YS02001748           JUNCTION     0.12     1.05     8.13     0  01:51        0.98
  YS02001751           JUNCTION     0.16     1.37     8.25     0  01:50        1.16
  YS02001754           JUNCTION     0.22     1.49     8.09     0  01:50        1.42
  YS02001757           JUNCTION     0.39     1.83     8.09     0  01:51        1.77
  YS02001759           JUNCTION     0.33     1.81     8.17     0  01:51        1.72
  YS02001762           JUNCTION     0.32     2.15     8.55     0  01:57        2.15
  YS02001765           JUNCTION     0.30     1.79     8.24     0  01:51        1.65
  YS02001767           JUNCTION     0.30     1.78     8.27     0  01:51        1.62
  YS02001770           JUNCTION     0.31     1.88     8.38     0  01:57        1.88
  YS02001774           JUNCTION     0.37     1.93     8.35     0  01:57        1.93
  YS02001779           JUNCTION     0.20     1.68     8.37     0  01:49        1.68
  YS02001783           JUNCTION     0.28     1.32     7.46     0  01:49        1.21
  YS02001784           JUNCTION     0.29     1.18     7.25     0  01:49        1.18
  YS02001786           JUNCTION     0.24     0.91     6.94     0  01:49        0.86
  YS02001788           JUNCTION     0.18     0.62     6.60     0  01:50        0.62
  YS02001790           JUNCTION     0.21     0.72     6.36     0  01:56        0.71
  YS02001791           JUNCTION     0.13     0.44     5.91     0  01:50        0.43
  YS02001793           JUNCTION     0.07     0.29     5.12     0  01:53        0.28
  YS02001882           JUNCTION     0.34     1.83     8.55     0  01:48        1.64
  YS02001884           JUNCTION     0.42     1.90     8.52     0  01:48        1.73
  YS02001887           JUNCTION     0.50     1.94     8.48     0  01:48        1.81
  YS02001890           JUNCTION     0.53     1.81     8.32     0  01:48        1.81
  YS02001895           JUNCTION     0.31     1.75     8.50     0  01:48        1.55
  YS02001898           JUNCTION     0.31     1.77     8.51     0  01:48        1.55
  YS02001901           JUNCTION     0.42     1.86     8.47     0  01:48        1.66
  YS02001904           JUNCTION     0.40     1.80     8.43     0  01:48        1.63
  YS02001907           JUNCTION     0.72     1.96     8.25     0  01:48        1.96
  YS02001910           JUNCTION     0.52     2.02     8.53     0  01:48        1.82
  YS02001915           JUNCTION     0.33     2.00     8.72     0  01:48        1.66
  YS02001918           JUNCTION     0.17     1.81     8.88     0  01:50        1.35
  YS02001920           JUNCTION     0.25     2.11     9.12     0  01:50        1.44
  YS02001923           JUNCTION     0.12     2.03     9.29     0  01:50        1.21
  YS02001926           JUNCTION     0.16     1.90     9.35     0  01:50        1.03
  YS02001929           JUNCTION     0.09     1.78     9.47     0  01:50        0.79
  YS02006553           JUNCTION     0.72     2.01     8.30     0  01:57        1.96
  YS02006556           JUNCTION     0.69     2.04     8.35     0  01:57        1.92
  YS02006558           JUNCTION     0.73     2.05     8.31     0  01:57        1.96
  YS02006561           JUNCTION     0.17     1.04     7.70     0  01:49        0.87
  YS02163301           JUNCTION     0.55     2.00     8.52     0  01:57        1.90
  YS02163601           JUNCTION     0.63     2.08     8.48     0  01:48        1.97
  YS02164001           JUNCTION     0.56     2.10     8.56     0  01:57        1.90
  CC-1                 OUTFALL      0.00     0.00     0.00     0  00:00        0.00
  CC-2                 OUTFALL      0.00     0.00     0.00     0  00:00        0.00
  JK-1                 OUTFALL      0.00     0.00     0.00     0  00:00        0.00
  JK-2                 OUTFALL      0.00     0.00     0.00     0  00:00        0.00
  WSC                  OUTFALL      0.23     0.35     1.02     0  02:31        0.35
  CC-storage           STORAGE      0.80     1.53     7.03     0  02:14        1.53
  JK-storage           STORAGE      3.10     4.22     5.02     0  02:06        4.21
  XR-storage           STORAGE      7.83     9.26     7.26     0  08:00        9.26
  
  
  *******************
  Node Inflow Summary
  *******************
  
  -------------------------------------------------------------------------------------------------
                                  Maximum  Maximum                  Lateral       Total        Flow
                                  Lateral    Total  Time of Max      Inflow      Inflow     Balance
                                   Inflow   Inflow   Occurrence      Volume      Volume       Error
  Node                 Type           LPS      LPS  days hr:min    10^6 ltr    10^6 ltr     Percent
  -------------------------------------------------------------------------------------------------
  WS02001211           JUNCTION      7.35   200.51     0  02:43       0.212        5.44       0.611
  WS02001212           JUNCTION      0.00   202.68     0  02:43           0        5.41       0.290
  WS02001213           JUNCTION      0.00   204.38     0  02:44           0        5.39       0.331
  WS02003059           JUNCTION      0.00   208.43     0  03:28           0        5.38       0.591
  WS02003060           JUNCTION     16.53   751.08     0  02:29       0.476        9.12       0.154
  WS02003066           JUNCTION      0.00   537.00     0  02:28           0        3.29       0.037
  WS02003067           JUNCTION      0.00   536.99     0  02:28           0         3.3       0.121
  WS02003069           JUNCTION      0.32   751.16     0  02:29     0.00922         9.1       0.163
  WS02003072           JUNCTION      0.00   751.09     0  02:30           0        9.09       0.222
  WS02003073           JUNCTION      1.82   752.88     0  02:30      0.0524        9.12       0.228
  WS02004138           JUNCTION      0.00   380.00     0  00:00           0        5.25       0.053
  WS02004139           JUNCTION      0.32   191.16     0  00:29     0.00924        5.26       0.509
  WS02004401           JUNCTION      0.00   540.23     0  02:26           0        3.39       0.291
  WS02004402           JUNCTION      0.00   539.84     0  02:26           0        3.38       0.297
  WS02004403           JUNCTION      0.00   539.42     0  02:26           0        3.37       0.291
  WS02004404           JUNCTION      0.16   539.07     0  02:26     0.00467        3.37       0.255
  WS02004405           JUNCTION      0.04   539.14     0  02:26      0.0011        3.36       0.353
  WS02004406           JUNCTION      0.00   539.48     0  02:26           0        3.35       0.607
  WS02004407           JUNCTION      0.00   538.57     0  02:27           0        3.33       0.027
  WS02004409           JUNCTION      0.00   538.13     0  02:27           0        3.33       0.068
  WS02004410           JUNCTION      0.00   537.69     0  02:27           0        3.32       0.117
  WS02004411           JUNCTION      0.00   537.53     0  02:27           0        3.32       0.153
  WS02004412           JUNCTION      0.00   537.21     0  02:28           0        3.32       0.210
  WS02004413           JUNCTION      0.00   537.21     0  02:28           0        3.31       0.378
  WS02006109           JUNCTION      1.23   559.37     0  03:03      0.0354        3.43       0.228
  WS02006110           JUNCTION      0.00   562.08     0  03:03           0        3.43       0.181
  WS02006111           JUNCTION      0.00   561.04     0  02:46           0        3.42       0.020
  WS02006112           JUNCTION      0.00   543.60     0  02:25           0        3.42       0.511
  WS02006113           JUNCTION      0.00   578.85     0  03:03           0        3.42       0.048
  WS02006115           JUNCTION      0.00   548.04     0  02:04           0         3.4       0.181
  WS02006116           JUNCTION      0.00   541.65     0  02:25           0        3.39       0.077
  WS02006228           JUNCTION      0.00   560.45     0  03:03           0         3.4       0.098
  WS02006229           JUNCTION      0.00   562.28     0  03:03           0        3.41       0.148
  WS02006230           JUNCTION     10.28   588.49     0  03:08       0.296        3.41       0.152
  WS02006231           JUNCTION      0.00   572.61     0  02:45           0        3.11      -0.129
  WS02006232           JUNCTION      0.00   571.04     0  02:51           0        3.12       0.307
  WS02006234           JUNCTION      0.00   566.51     0  02:51           0        3.11      -0.266
  WS02006235           JUNCTION      0.00   563.03     0  02:51           0        3.19       0.233
  WS02006238           JUNCTION      0.00   418.98     0  03:05           0        2.19      -0.148
  WS02006239           JUNCTION      0.00   419.48     0  02:35           0        2.15      -0.050
  WS02006240           JUNCTION      0.00   417.73     0  02:35           0        2.11      -0.067
  WS02006242           JUNCTION      0.00   418.31     0  02:35           0        2.08      -0.157
  WS02006243           JUNCTION      0.00   417.63     0  02:35           0        2.06      -0.133
  WS02006245           JUNCTION      0.00   417.45     0  02:35           0        2.07       0.492
  WS02006247           JUNCTION      0.00   416.82     0  02:35           0        2.07      -0.062
  WS02006248           JUNCTION      0.00   417.47     0  02:35           0        2.06      -0.233
  WS02006249           JUNCTION      0.00   464.24     0  03:20           0        2.33       0.731
  WS02006251           JUNCTION      0.08   407.47     0  03:15     0.00222        2.33      -0.008
  WS02006252           JUNCTION      0.00   400.00     0  00:00           0        2.32      -0.332
  WS02006256           JUNCTION      0.00   300.00     0  00:00           0         1.5      -0.605
  WSF200               JUNCTION      0.00   537.03     0  02:29           0        3.29       0.013
  YS02001580           JUNCTION      0.00   140.50     0  01:47           0     0.00447       2.237
  YS02001583           JUNCTION      0.00   235.19     0  01:47           0       0.015      -8.586
  YS02001586           JUNCTION    426.35   426.67     0  01:53        1.15        1.17       0.123
  YS02001590           JUNCTION      0.00   321.17     0  01:57           0        1.08      -0.040
  YS02001593           JUNCTION      0.00   318.67     0  01:57           0        1.08      -0.007
  YS02001596           JUNCTION      0.00   318.04     0  01:57           0        1.08      -0.023
  YS02001600           JUNCTION      0.00   318.66     0  01:57           0        1.08      -0.001
  YS02001601           JUNCTION    749.13  1066.62     0  01:51        1.55        2.64       0.015
  YS02001602           JUNCTION      0.00   548.70     0  01:46           0        1.98       0.014
  YS02001605           JUNCTION      0.00   548.76     0  01:46           0        1.91       0.011
  YS02001607           JUNCTION      0.00   548.98     0  01:46           0        1.91       0.090
  YS02001610           JUNCTION      0.00   544.75     0  01:46           0        1.91       0.105
  YS02001613           JUNCTION      0.00   550.06     0  01:46           0        1.73       0.081
  YS02001616           JUNCTION      0.00   561.51     0  01:46           0        1.74       0.017
  YS02001619           JUNCTION    733.19   980.18     0  01:47        1.78        3.52      -0.010
  YS02001622           JUNCTION      0.00   989.02     0  01:47           0        3.51      -0.006
  YS02001625           JUNCTION      0.00   953.33     0  01:47           0        3.51       0.239
  YS02001629           JUNCTION      0.00   953.39     0  01:47           0        3.18       0.019
  YS02001633           JUNCTION    576.16  1433.11     0  01:48        1.17        4.35       0.072
  YS02001641           JUNCTION      0.00  1432.34     0  01:48           0        4.35       0.059
  YS02001644           JUNCTION    493.10  1872.04     0  01:48       0.961        5.31       0.056
  YS02001647           JUNCTION      0.00  1872.26     0  01:48           0         5.3       0.009
  YS02001649           JUNCTION      0.00  2140.00     0  01:49           0        6.22       0.005
  YS02001652           JUNCTION      0.00   578.38     0  01:52           0       0.919      -0.072
  YS02001655           JUNCTION      0.15   579.16     0  01:52     0.00443       0.919      -0.083
  YS02001658           JUNCTION      0.00   639.47     0  02:00           0       0.914      -0.108
  YS02001661           JUNCTION      0.00   495.54     0  01:50           0       0.914       0.058
  YS02001664           JUNCTION    491.71   491.71     0  01:51       0.914       0.914      -0.015
  YS02001745           JUNCTION    305.98   305.98     0  01:50       0.526       0.526       0.293
  YS02001748           JUNCTION      0.04   521.29     0  01:52      0.0013       0.526      -0.406
  YS02001751           JUNCTION      0.01   411.86     0  01:54    0.000317       0.535       0.030
  YS02001754           JUNCTION      0.26   352.42     0  01:53     0.00749       0.551      -0.226
  YS02001757           JUNCTION      0.00  3095.64     0  01:52           0        8.68       0.030
  YS02001759           JUNCTION    443.53  1117.97     0  01:50       0.768        1.91      -0.016
  YS02001762           JUNCTION      0.00   666.35     0  01:50           0        1.15      -0.019
  YS02001765           JUNCTION      0.00   657.16     0  01:50           0        1.15       0.014
  YS02001767           JUNCTION      0.54   651.13     0  01:50      0.0154        1.15       0.011
  YS02001770           JUNCTION    610.83   639.13     0  01:50        1.13        1.18      -0.034
  YS02001774           JUNCTION      0.00   433.52     0  01:49           0      0.0662       1.795
  YS02001779           JUNCTION      0.01   446.40     0  01:49    0.000144      0.0214      -5.411
  YS02001783           JUNCTION      0.00  1148.42     0  01:50           0        3.22       0.008
  YS02001784           JUNCTION      1.06  1149.47     0  01:50      0.0305        3.25       0.016
  YS02001786           JUNCTION      0.06  1149.65     0  01:50     0.00162        3.25       0.021
  YS02001788           JUNCTION      0.07  1151.84     0  01:50     0.00204        3.25       0.009
  YS02001790           JUNCTION      0.15  1163.59     0  01:51     0.00446        3.26       0.024
  YS02001791           JUNCTION      0.00  1270.45     0  01:56           0        3.26      -0.023
  YS02001793           JUNCTION      0.00  1224.94     0  01:51           0        3.26       0.007
  YS02001882           JUNCTION      0.00   109.44     0  01:48           0      0.0131       4.469
  YS02001884           JUNCTION      0.00   123.15     0  01:48           0      0.0491       5.214
  YS02001887           JUNCTION    476.91   482.81     0  01:49       0.799       0.833       0.529
  YS02001890           JUNCTION      0.00   489.09     0  01:49           0       0.791       0.637
  YS02001895           JUNCTION      0.00   494.57     0  01:49           0       0.785       0.213
  YS02001898           JUNCTION      0.00   499.17     0  01:49           0       0.784       0.001
  YS02001901           JUNCTION      0.00   505.42     0  01:49           0       0.786       0.427
  YS02001904           JUNCTION      0.00   508.40     0  01:49           0       0.791       0.340
  YS02001907           JUNCTION      0.00  1417.60     0  01:51           0         2.4       0.738
  YS02001910           JUNCTION      0.00   960.58     0  01:51           0        1.61       0.441
  YS02001915           JUNCTION    502.51   960.00     0  01:51       0.979        1.66       0.089
  YS02001918           JUNCTION      0.00   475.73     0  01:48           0       0.708       0.034
  YS02001920           JUNCTION      2.87   457.33     0  01:51      0.0827       0.687       0.111
  YS02001923           JUNCTION      0.04   524.07     0  01:49     0.00109       0.588      -0.140
  YS02001926           JUNCTION      0.05   840.82     0  01:50      0.0015       0.568      -0.131
  YS02001929           JUNCTION    258.27   585.81     0  01:50       0.551       0.555      -0.052
  YS02006553           JUNCTION      0.00   788.53     0  02:01           0        2.16       0.547
  YS02006556           JUNCTION      0.00   787.08     0  02:01           0        2.17       0.361
  YS02006558           JUNCTION    605.15  1170.56     0  01:49        1.11        3.25       0.109
  YS02006561           JUNCTION      0.00  1168.96     0  01:49           0        3.22      -0.003
  YS02163301           JUNCTION      0.00   932.08     0  01:48           0        3.18       0.040
  YS02163601           JUNCTION      0.11  1433.08     0  01:48     0.00317        4.35       0.108
  YS02164001           JUNCTION      0.00  1432.89     0  01:48           0        4.35       0.048
  CC-1                 OUTFALL       0.00   683.00     0  00:00           0        3.66       0.000
  CC-2                 OUTFALL       0.00   683.00     0  00:00           0        3.43       0.000
  JK-1                 OUTFALL       0.00  1000.00     0  00:00           0        1.65       0.000
  JK-2                 OUTFALL       0.00  1000.00     0  00:00           0      0.0484       0.000
  WSC                  OUTFALL       0.00   752.82     0  02:31           0         9.1       0.000
  CC-storage           STORAGE       0.00  3097.17     0  01:52           0        10.9      -0.234
  JK-storage           STORAGE       0.00  1222.91     0  01:51           0        3.41       0.235
  XR-storage           STORAGE     200.00   200.00     0  00:00        5.76        6.36       0.001
  
  
  **********************
  Node Surcharge Summary
  **********************
  
  Surcharging occurs when water rises above the top of the highest conduit.
  ---------------------------------------------------------------------
                                               Max. Height   Min. Depth
                                   Hours       Above Crown    Below Rim
  Node                 Type      Surcharged         Meters       Meters
  ---------------------------------------------------------------------
  WS02006109           JUNCTION        1.40          0.334        1.486
  WS02006110           JUNCTION        0.90          0.242        1.608
  WS02006112           JUNCTION        0.89          0.100        1.580
  WS02006228           JUNCTION        1.39          0.350        1.850
  WS02006229           JUNCTION        1.39          0.443        2.007
  WS02006230           JUNCTION        0.89          0.206        1.364
  WS02006231           JUNCTION        0.99          0.359        1.171
  WS02006232           JUNCTION        1.41          0.656        0.824
  WS02006234           JUNCTION        1.24          0.777        0.463
  WS02006235           JUNCTION        1.38          0.967        0.323
  WS02006238           JUNCTION        1.40          1.024        0.406
  WS02006239           JUNCTION        1.39          1.032        0.258
  WS02006240           JUNCTION        1.39          0.997        0.393
  WS02006242           JUNCTION        1.40          0.820        0.000
  WS02006243           JUNCTION        1.38          0.770        0.000
  WS02006245           JUNCTION        1.37          0.676        0.174
  WS02006247           JUNCTION        1.37          0.594        0.166
  WS02006248           JUNCTION        1.36          0.380        0.000
  WS02006249           JUNCTION        1.36          0.390        0.000
  WS02006251           JUNCTION        1.03          0.356        0.824
  WS02006252           JUNCTION        1.55          1.100        0.000
  WS02006256           JUNCTION        3.79          2.050        0.000
  YS02001580           JUNCTION        0.40          0.450        0.000
  YS02001583           JUNCTION        0.41          0.500        0.000
  YS02001586           JUNCTION        0.55          0.510        0.000
  YS02001590           JUNCTION        0.62          0.750        0.000
  YS02001593           JUNCTION        0.62          0.840        0.000
  YS02001596           JUNCTION        0.72          0.988        0.082
  YS02001600           JUNCTION        0.87          1.190        0.000
  YS02001601           JUNCTION        1.30          1.440        0.000
  YS02001602           JUNCTION        1.14          1.270        0.000
  YS02001605           JUNCTION        1.07          1.180        0.000
  YS02001607           JUNCTION        0.59          0.680        0.000
  YS02001610           JUNCTION        0.62          0.680        0.000
  YS02001613           JUNCTION        0.58          0.700        0.000
  YS02001616           JUNCTION        0.54          0.610        0.000
  YS02001619           JUNCTION        0.54          0.610        0.000
  YS02001622           JUNCTION        0.53          0.620        0.000
  YS02001625           JUNCTION        0.70          0.780        0.000
  YS02001629           JUNCTION        0.47          0.470        0.000
  YS02001633           JUNCTION        0.72          1.060        0.000
  YS02001641           JUNCTION        0.66          1.100        0.000
  YS02001644           JUNCTION        0.63          0.920        0.000
  YS02001647           JUNCTION        0.43          0.900        0.000
  YS02001649           JUNCTION        0.54          0.871        0.179
  YS02001652           JUNCTION        0.35          0.808        0.322
  YS02001655           JUNCTION        0.19          1.200        0.000
  YS02001658           JUNCTION        0.02          0.738        0.562
  YS02001751           JUNCTION        0.08          0.375        0.825
  YS02001754           JUNCTION        0.24          0.436        0.714
  YS02001757           JUNCTION        0.60          0.825        0.385
  YS02001759           JUNCTION        0.50          0.810        0.400
  YS02001762           JUNCTION        0.48          1.150        0.000
  YS02001765           JUNCTION        0.43          0.790        0.310
  YS02001767           JUNCTION        0.39          0.784        0.246
  YS02001770           JUNCTION        0.37          0.851        0.069
  YS02001774           JUNCTION        0.45          0.930        0.120
  YS02001779           JUNCTION        0.24          0.680        0.000
  YS02001783           JUNCTION        0.36          0.522        1.078
  YS02001784           JUNCTION        0.34          0.384        1.106
  YS02001786           JUNCTION        0.24          0.115        1.315
  YS02001882           JUNCTION        0.31          0.830        0.000
  YS02001884           JUNCTION        0.32          0.841        0.029
  YS02001887           JUNCTION        0.35          0.889        0.061
  YS02001890           JUNCTION        0.36          0.760        0.000
  YS02001895           JUNCTION        0.30          0.750        0.000
  YS02001898           JUNCTION        0.29          0.740        0.000
  YS02001901           JUNCTION        0.34          0.861        0.009
  YS02001904           JUNCTION        0.33          0.795        0.055
  YS02001907           JUNCTION        0.55          0.950        0.000
  YS02001910           JUNCTION        0.39          1.024        0.076
  YS02001915           JUNCTION        0.31          1.000        0.000
  YS02001918           JUNCTION        0.23          0.810        0.000
  YS02001920           JUNCTION        0.24          1.111        0.029
  YS02001923           JUNCTION        0.01          0.820        0.000
  YS02001926           JUNCTION        0.01          0.900        0.000
  YS02001929           JUNCTION        0.01          0.780        0.000
  YS02006553           JUNCTION        0.56          1.013        0.177
  YS02006556           JUNCTION        0.47          0.996        0.354
  YS02006558           JUNCTION        0.46          0.946        0.454
  YS02006561           JUNCTION        0.19          0.239        0.911
  YS02163301           JUNCTION        0.70          0.999        0.031
  YS02163601           JUNCTION        0.75          1.080        0.000
  YS02164001           JUNCTION        0.67          1.100        0.000
  
  
  *********************
  Node Flooding Summary
  *********************
  
  Flooding refers to all water that overflows a node, whether it ponds or not.
  --------------------------------------------------------------------------
                                                             Total   Maximum
                                 Maximum   Time of Max       Flood    Ponded
                        Hours       Rate    Occurrence      Volume     Depth
  Node                 Flooded       LPS   days hr:min    10^6 ltr    Meters
  --------------------------------------------------------------------------
  WS02006242              0.01      2.82      0  03:03       0.000     0.000
  WS02006243              0.01      0.96      0  03:03       0.000     0.000
  WS02006248              0.01     19.96      0  03:03       0.000     0.000
  WS02006249              1.00    100.49      0  01:52       0.247     0.000
  WS02006252              0.01    245.63      0  00:00       0.000     0.000
  WS02006256              1.39    293.19      0  00:00       0.456     0.000
  YS02001580              0.01     92.74      0  01:47       0.000     0.000
  YS02001583              0.01    208.66      0  01:47       0.000     0.000
  YS02001586              0.29    123.99      0  01:47       0.069     0.000
  YS02001590              0.01     67.69      0  01:45       0.000     0.000
  YS02001593              0.01     19.74      0  01:45       0.000     0.000
  YS02001600              0.01      3.22      0  01:46       0.000     0.000
  YS02001601              0.48    668.81      0  01:52       0.653     0.000
  YS02001602              0.37     64.46      0  01:57       0.074     0.000
  YS02001605              0.01      4.24      0  01:47       0.000     0.000
  YS02001607              0.01      3.96      0  01:57       0.000     0.000
  YS02001610              0.31    244.31      0  01:53       0.170     0.000
  YS02001613              0.01     21.90      0  01:47       0.000     0.000
  YS02001616              0.01     10.63      0  01:47       0.000     0.000
  YS02001619              0.01     46.28      0  01:47       0.000     0.000
  YS02001622              0.01    236.68      0  01:47       0.000     0.000
  YS02001625              0.28    705.40      0  01:53       0.324     0.000
  YS02001629              0.03    293.91      0  01:47       0.003     0.000
  YS02001633              0.01     10.52      0  01:57       0.000     0.000
  YS02001641              0.01     15.90      0  01:57       0.000     0.000
  YS02001644              0.01     26.41      0  01:51       0.000     0.000
  YS02001647              0.01     86.60      0  01:48       0.000     0.000
  YS02001655              0.01    172.28      0  02:01       0.000     0.000
  YS02001762              0.01      7.17      0  01:57       0.000     0.000
  YS02001779              0.01    369.96      0  01:49       0.003     0.000
  YS02001882              0.01    100.35      0  01:48       0.000     0.000
  YS02001890              0.01     39.58      0  01:49       0.001     0.000
  YS02001895              0.01     65.86      0  01:48       0.000     0.000
  YS02001898              0.01    147.79      0  01:48       0.000     0.000
  YS02001907              0.17    873.14      0  01:51       0.224     0.000
  YS02001915              0.01    211.81      0  01:48       0.000     0.000
  YS02001918              0.01    114.52      0  01:50       0.001     0.000
  YS02001923              0.01     40.26      0  01:50       0.000     0.000
  YS02001926              0.01    468.92      0  01:50       0.001     0.000
  YS02001929              0.01    312.48      0  01:50       0.002     0.000
  YS02163601              0.01     22.17      0  01:57       0.000     0.000
  YS02164001              0.01     29.13      0  01:57       0.000     0.000
  
  
  **********************
  Storage Volume Summary
  **********************
  
  ------------------------------------------------------------------------------------------------
                         Average    Avg   Evap  Exfil     Maximum    Max    Time of Max    Maximum
                          Volume   Pcnt   Pcnt   Pcnt      Volume   Pcnt     Occurrence    Outflow
  Storage Unit           1000 m³   Full   Loss   Loss     1000 m³   Full    days hr:min        LPS
  ------------------------------------------------------------------------------------------------
  CC-storage               2.231   34.8    0.0    0.0       4.252   66.3       0  02:14    1783.53
  JK-storage               0.156   53.4    0.0    0.0       0.212   72.8       0  02:06    2300.00
  XR-storage               0.940   65.3    0.0    0.0       1.111   77.2       0  08:00     380.00
  
  
  ***********************
  Outfall Loading Summary
  ***********************
  
  -----------------------------------------------------------
                         Flow       Avg       Max       Total
                         Freq      Flow      Flow      Volume
  Outfall Node           Pcnt       LPS       LPS    10^6 ltr
  -----------------------------------------------------------
  CC-1                  31.88    683.00    683.00       3.663
  CC-2                  29.76    683.00    683.00       3.434
  JK-1                  14.23   1000.00   1000.00       1.654
  JK-2                   0.26   1000.00   1000.00       0.048
  WSC                   99.93    380.05    752.82       9.101
  -----------------------------------------------------------
  System                35.21   3746.05   3366.23      17.899
  
  
  ********************
  Link Flow Summary
  ********************
  
  -----------------------------------------------------------------------------
                                 Maximum  Time of Max   Maximum    Max/    Max/
                                  |Flow|   Occurrence   |Veloc|    Full    Full
  Link                 Type          LPS  days hr:min     m/sec    Flow   Depth
  -----------------------------------------------------------------------------
  1                    CONDUIT    752.82     0  02:31      3.08    0.26    0.35
  WS02001211WS02001212 CONDUIT    202.68     0  02:43      0.54    0.15    0.51
  WS02001212WS02001213 CONDUIT    204.38     0  02:44      1.04    0.32    0.36
  WS02001213WS02003059 CONDUIT    208.43     0  03:28      0.47    0.34    0.67
  WS02003059WS02003060 CONDUIT    215.49     0  03:28      0.67    0.14    0.58
  WS02003060WS02003069 CONDUIT    750.84     0  02:29      1.77    0.29    0.40
  WS02003066WSF200     CONDUIT    537.03     0  02:29      2.74    0.09    0.23
  WS02003067WS02003066 CONDUIT    537.00     0  02:28      1.21    0.17    0.42
  WS02003069WS02003072 CONDUIT    751.09     0  02:30      1.51    0.36    0.45
  WS02003072WS02003073 CONDUIT    751.06     0  02:30      1.60    1.62    0.43
  WS02004138WS02004139 CONDUIT    190.84     0  00:29      2.17    0.04    0.33
  WS02004139WS02001211 CONDUIT    193.17     0  02:43      0.54    0.24    0.47
  WS02004401WS02004402 CONDUIT    539.84     0  02:26      0.97    0.65    0.86
  WS02004402WS02004403 CONDUIT    539.42     0  02:26      0.97    0.77    0.88
  WS02004403WS02004404 CONDUIT    538.90     0  02:26      0.92    0.39    0.93
  WS02004404WS02004405 CONDUIT    539.10     0  02:26      1.08    5.28    0.96
  WS02004405WS02004406 CONDUIT    539.48     0  02:26      0.99    1.06    0.96
  WS02004406WS02004407 CONDUIT    538.57     0  02:27      1.04    0.24    0.63
  WS02004407WS02004409 CONDUIT    538.13     0  02:27      1.57    0.19    0.48
  WS02004409WS02004410 CONDUIT    537.69     0  02:27      1.05    0.70    0.67
  WS02004410WS02004411 CONDUIT    537.53     0  02:27      1.00    0.73    0.69
  WS02004411WS02004412 CONDUIT    537.21     0  02:28      0.93    0.76    0.69
  WS02004412WS02004413 CONDUIT    537.21     0  02:28      0.82    0.36    0.78
  WS02004413WS02003067 CONDUIT    536.99     0  02:28      1.11    0.23    0.59
  WS02006109WS02006110 CONDUIT    562.08     0  03:03      1.12    1.08    1.00
  WS02006110WS02006113 CONDUIT    578.85     0  03:03      1.39    0.53    0.79
  WS02006111WS02006112 CONDUIT    543.60     0  02:25      1.82    0.26    0.67
  WS02006112WS02006115 CONDUIT    548.04     0  02:04      0.88    0.32    0.87
  WS02006113WS02006111 CONDUIT    561.04     0  02:46      2.47    0.67    0.46
  WS02006115WS02006116 CONDUIT    541.65     0  02:25      1.11    0.70    0.76
  WS02006116WS02004401 CONDUIT    540.23     0  02:26      0.98    0.74    0.84
  WS02006228WS02006109 CONDUIT    558.14     0  03:03      1.11    2.44    1.00
  WS02006229WS02006228 CONDUIT    560.45     0  03:03      1.15    1.86    1.00
  WS02006230WS02006229 CONDUIT    562.28     0  03:03      1.46   12.51    1.00
  WS02006231WS02006230 CONDUIT    578.21     0  03:08      1.56    8.77    1.00
  WS02006232WS02006231 CONDUIT    572.61     0  02:45      1.49    1.20    1.00
  WS02006234WS02006232 CONDUIT    571.04     0  02:51      1.48    1.16    1.00
  WS02006235WS02006234 CONDUIT    566.51     0  02:51      1.47    5.98    1.00
  WS02006238WS02006235 CONDUIT    420.66     0  03:05      1.56    0.94    1.00
  WS02006239WS02006238 CONDUIT    418.98     0  03:05      1.11    1.34    1.00
  WS02006240WS02006239 CONDUIT    419.48     0  02:35      1.24    1.32    1.00
  WS02006242WS02006240 CONDUIT    417.73     0  02:35      1.12    1.66    1.00
  WS02006243WS02006242 CONDUIT    418.31     0  02:35      1.39    0.89    1.00
  WS02006245WS02006243 CONDUIT    417.63     0  02:35      1.45    1.24    1.00
  WS02006247WS02006245 CONDUIT    417.45     0  02:35      1.44    3.31    1.00
  WS02006248WS02006247 CONDUIT    416.82     0  02:35      1.45    0.91    1.00
  WS02006249WS02006248 CONDUIT    417.47     0  02:35      1.37    2.29    1.00
  WS02006251WS02006249 CONDUIT    464.24     0  03:20      1.99    1.34    1.00
  WS02006252WS02006251 CONDUIT    407.39     0  03:15     25.11    1.50    1.00
  WS02006256WS02006235 CONDUIT    289.22     0  01:44      4.23    3.06    1.00
  WSF200WS02003060     CONDUIT    537.13     0  02:29      1.76    0.12    0.32
  YS02001580YS02001583 CONDUIT    140.50     0  01:47      0.82    0.54    1.00
  YS02001583YS02001586 CONDUIT    187.42     0  01:47      0.82    0.28    1.00
  YS02001586YS02001590 CONDUIT    321.17     0  01:57      1.28    0.56    1.00
  YS02001590YS02001593 CONDUIT    318.67     0  01:57      1.13    2.00    1.00
  YS02001593YS02001596 CONDUIT    318.04     0  01:57      1.73    0.50    1.00
  YS02001596YS02001600 CONDUIT    318.66     0  01:57      1.20    0.62    1.00
  YS02001600YS02001601 CONDUIT    319.06     0  01:57      1.13    0.55    1.00
  YS02001601YS02001602 CONDUIT    548.70     0  01:46      1.94    1.98    1.00
  YS02001602YS02001605 CONDUIT    548.76     0  01:46      1.94   11.61    1.00
  YS02001605YS02001607 CONDUIT    548.98     0  01:46      1.94    3.01    1.00
  YS02001607YS02001610 CONDUIT    544.75     0  01:46      0.69    0.52    1.00
  YS02001610YS02001613 CONDUIT    550.06     0  01:46      0.70    0.63    1.00
  YS02001613YS02001616 CONDUIT    561.51     0  01:46      0.72    0.48    1.00
  YS02001616YS02001619 CONDUIT    532.38     0  01:47      0.68    0.92    1.00
  YS02001619YS02001622 CONDUIT    989.02     0  01:47      1.26    1.46    1.00
  YS02001622YS02001625 CONDUIT    953.33     0  01:47      1.21    0.51    1.00
  YS02001625YS02001629 CONDUIT    953.39     0  01:47      1.21    0.45    1.00
  YS02001629YS02163301 CONDUIT    932.08     0  01:48      1.19    1.15    1.00
  YS02001633YS02163601 CONDUIT   1432.97     0  01:48      1.82    1.50    1.00
  YS02001641YS02001644 CONDUIT   1432.57     0  01:48      1.82    4.63    1.00
  YS02001644YS02001647 CONDUIT   1872.26     0  01:48      2.40    1.10    1.00
  YS02001647YS02001649 CONDUIT   1851.40     0  01:48      2.39    0.98    1.00
  YS02001649YS02001757 CONDUIT   2135.66     0  01:49      2.72    1.30    1.00
  YS02001652YS02001649 CONDUIT    577.68     0  01:52      0.84    0.29    1.00
  YS02001655YS02001652 CONDUIT    578.38     0  01:52      1.40    0.28    1.00
  YS02001658YS02001655 CONDUIT    579.00     0  01:52      1.98    0.25    1.00
  YS02001661YS02001658 CONDUIT    639.47     0  02:00      2.38    0.25    0.90
  YS02001664YS02001661 CONDUIT    495.54     0  01:50      2.28    0.16    0.56
  YS02001745YS02001748 CONDUIT    521.25     0  01:52      2.20    0.20    0.70
  YS02001748YS02001751 CONDUIT    411.85     0  01:54      1.78    0.21    1.00
  YS02001751YS02001754 CONDUIT    352.16     0  01:53      1.50    0.17    1.00
  YS02001754YS02001757 CONDUIT    353.71     0  01:53      0.53    0.14    1.00
  YS02001757CaochengTiaoxuchi CONDUIT   3097.17     0  01:52      3.94    1.34    1.00
  YS02001759YS02001757 CONDUIT   1125.78     0  01:50      1.43    0.80    1.00
  YS02001762YS02001759 CONDUIT    674.82     0  01:50      0.86    0.78    1.00
  YS02001765YS02001762 CONDUIT    666.35     0  01:50      0.85    0.62    1.00
  YS02001767YS02001765 CONDUIT    657.16     0  01:50      0.84    0.83    1.00
  YS02001770YS02001767 CONDUIT    650.60     0  01:50      0.83    2.58    1.00
  YS02001774YS02001770 CONDUIT    433.52     0  01:49      0.55    0.28    1.00
  YS02001779YS02001774 CONDUIT    446.40     0  01:49      0.58    0.22    1.00
  YS02001783YS02001784 CONDUIT   1148.41     0  01:50      2.28    1.58    1.00
  YS02001784YS02001785 CONDUIT   1149.60     0  01:50      2.29    2.68    1.00
  YS02001786YS02001788 CONDUIT   1151.77     0  01:50      2.46    2.22    0.89
  YS02001788YS02001790 CONDUIT   1163.43     0  01:51      2.69    0.86    0.83
  YS02001790YS02001791 CONDUIT   1270.45     0  01:56      3.42    1.38    0.70
  YS02001791YS02001793 CONDUIT   1224.94     0  01:51      6.74    0.53    0.44
  YS02001793JiankangQianchi CONDUIT   1222.91     0  01:51      2.46    0.10    0.64
  YS02001882YS02001884 CONDUIT    109.44     0  01:48      0.14    0.13    1.00
  YS02001884YS02001887 CONDUIT    123.15     0  01:48      0.16    0.16    1.00
  YS02001887YS02001890 CONDUIT    489.09     0  01:49      0.62    0.84    1.00
  YS02001890YS02001895 CONDUIT    494.57     0  01:49      0.63    0.23    1.00
  YS02001895YS02001898 CONDUIT    499.17     0  01:49      0.64    0.87    1.00
  YS02001898YS02001901 CONDUIT    505.42     0  01:49      0.64    0.33    1.00
  YS02001901YS02001904 CONDUIT    508.40     0  01:49      0.65    0.79    1.00
  YS02001904YS02001907 CONDUIT    512.25     0  01:49      0.65    0.18    1.00
  YS02001907YS02006553 CONDUIT    788.53     0  02:01      0.88    0.93    1.00
  YS02001910YS02001907 CONDUIT    960.22     0  01:51      1.22    0.54    1.00
  YS02001915YS02001910 CONDUIT    960.58     0  01:51      1.22    0.48    1.00
  YS02001918YS02001915 CONDUIT    463.23     0  01:49      0.60    0.26    1.00
  YS02001920YS02001918 CONDUIT    457.54     0  01:51      0.65    0.44    1.00
  YS02001923YS02001920 CONDUIT    454.46     0  01:51      0.74    0.20    1.00
  YS02001926YS02001923 CONDUIT    485.60     0  01:49      1.00    0.69    1.00
  YS02001929YS02001926 CONDUIT    454.56     0  01:50      1.18    0.22    1.00
  YS02006553YS02006556 CONDUIT    787.08     0  02:01      1.00    0.67    1.00
  YS02006556YS02006558 CONDUIT    789.37     0  02:02      1.01    0.62    1.00
  YS02006558YS02006561 CONDUIT   1168.96     0  01:49      4.13    2.58    1.00
  YS02006561YS02001783 CONDUIT   1148.42     0  01:50      2.29    0.59    1.00
  YS02163301YS02001633 CONDUIT    932.18     0  01:48      1.19    0.88    1.00
  YS02163601YS02164001 CONDUIT   1432.89     0  01:48      1.82    1.27    1.00
  YS02164001YS02001641 CONDUIT   1432.34     0  01:48      1.82    1.96    1.00
  CC-R1                PUMP       683.00     0  00:00              1.00
  CC-R2                PUMP       683.00     0  00:00              1.00
  CC-S1                PUMP       200.00     0  00:00              1.00
  CC-S2                PUMP       200.00     0  00:00              1.00
  JK-R1                PUMP      1000.00     0  00:00              1.00
  JK-R2                PUMP      1000.00     0  00:00              1.00
  JK-S                 PUMP       300.00     0  00:00              1.00
  XR-1                 PUMP        95.00     0  00:00              1.00
  XR-2                 PUMP        95.00     0  00:00              1.00
  XR-3                 PUMP        95.00     0  00:00              1.00
  XR-4                 PUMP        95.00     0  00:00              1.00
  
  
  ***************************
  Flow Classification Summary
  ***************************
  
  -------------------------------------------------------------------------------------
                      Adjusted    ---------- Fraction of Time in Flow Class ---------- 
                       /Actual         Up    Down  Sub   Sup   Up    Down  Norm  Inlet 
  Conduit               Length    Dry  Dry   Dry   Crit  Crit  Crit  Crit  Ltd   Ctrl  
  -------------------------------------------------------------------------------------
  1                       1.00   0.00  0.00  0.00  0.00  1.00  0.00  0.00  0.19  0.00
  WS02001211WS02001212    1.00   0.00  0.02  0.00  0.98  0.00  0.00  0.00  0.00  0.00
  WS02001212WS02001213    1.00   0.02  0.00  0.00  0.19  0.00  0.78  0.00  0.00  0.00
  WS02001213WS02003059    1.00   0.00  0.01  0.00  0.99  0.00  0.00  0.00  0.00  0.00
  WS02003059WS02003060    1.00   0.00  0.00  0.00  1.00  0.00  0.00  0.00  0.03  0.00
  WS02003060WS02003069    1.00   0.00  0.00  0.00  0.98  0.02  0.00  0.00  0.66  0.00
  WS02003066WSF200        1.00   0.13  0.00  0.00  0.00  0.87  0.00  0.00  0.74  0.00
  WS02003067WS02003066    1.00   0.10  0.02  0.00  0.88  0.00  0.00  0.00  0.00  0.00
  WS02003069WS02003072    1.00   0.00  0.00  0.00  1.00  0.00  0.00  0.00  0.77  0.00
  WS02003072WS02003073    1.00   0.00  0.00  0.00  0.00  0.00  0.00  1.00  0.00  0.00
  WS02004138WS02004139    1.00   0.00  0.00  0.00  0.97  0.01  0.00  0.02  0.98  0.00
  WS02004139WS02001211    1.00   0.00  0.00  0.00  0.99  0.00  0.00  0.00  0.00  0.00
  WS02004401WS02004402    1.00   0.02  0.00  0.00  0.98  0.00  0.00  0.00  0.00  0.00
  WS02004402WS02004403    1.00   0.02  0.00  0.00  0.97  0.00  0.00  0.00  0.00  0.00
  WS02004403WS02004404    1.00   0.00  0.03  0.00  0.97  0.00  0.00  0.00  0.00  0.00
  WS02004404WS02004405    1.00   0.00  0.00  0.00  1.00  0.00  0.00  0.00  0.01  0.00
  WS02004405WS02004406    1.00   0.00  0.00  0.00  1.00  0.00  0.00  0.00  0.00  0.00
  WS02004406WS02004407    1.00   0.00  0.05  0.00  0.95  0.00  0.00  0.00  0.00  0.00
  WS02004407WS02004409    1.00   0.05  0.00  0.00  0.94  0.01  0.00  0.00  0.94  0.00
  WS02004409WS02004410    1.00   0.05  0.00  0.00  0.95  0.00  0.00  0.00  0.03  0.00
  WS02004410WS02004411    1.00   0.05  0.00  0.00  0.95  0.00  0.00  0.00  0.01  0.00
  WS02004411WS02004412    1.00   0.05  0.00  0.00  0.95  0.00  0.00  0.00  0.00  0.00
  WS02004412WS02004413    1.00   0.05  0.00  0.00  0.94  0.00  0.00  0.00  0.01  0.00
  WS02004413WS02003067    1.00   0.06  0.04  0.00  0.00  0.00  0.90  0.00  0.00  0.00
  WS02006109WS02006110    1.00   0.00  0.01  0.00  0.98  0.00  0.01  0.00  0.00  0.00
  WS02006110WS02006113    1.00   0.01  0.01  0.00  0.98  0.00  0.00  0.00  0.00  0.00
  WS02006111WS02006112    1.00   0.02  0.00  0.00  0.98  0.00  0.00  0.00  0.98  0.00
  WS02006112WS02006115    1.00   0.02  0.00  0.00  0.97  0.00  0.00  0.00  0.00  0.00
  WS02006113WS02006111    1.00   0.02  0.00  0.00  0.00  0.98  0.00  0.00  0.09  0.00
  WS02006115WS02006116    1.00   0.02  0.00  0.00  0.97  0.00  0.00  0.01  0.00  0.00
  WS02006116WS02004401    1.00   0.02  0.00  0.00  0.98  0.00  0.00  0.00  0.00  0.00
  WS02006228WS02006109    1.00   0.00  0.00  0.00  1.00  0.00  0.00  0.00  0.00  0.00
  WS02006229WS02006228    1.00   0.00  0.00  0.00  0.99  0.00  0.00  0.01  0.00  0.00
  WS02006230WS02006229    1.00   0.00  0.00  0.00  0.99  0.00  0.00  0.01  0.03  0.00
  WS02006231WS02006230    1.00   0.00  0.00  0.00  0.18  0.00  0.82  0.00  0.00  0.00
  WS02006232WS02006231    1.00   0.00  0.00  0.00  0.99  0.00  0.01  0.00  0.00  0.00
  WS02006234WS02006232    1.00   0.00  0.00  0.00  1.00  0.00  0.00  0.00  0.38  0.00
  WS02006235WS02006234    1.00   0.00  0.00  0.00  0.56  0.00  0.44  0.00  0.00  0.00
  WS02006238WS02006235    1.00   0.00  0.00  0.00  1.00  0.00  0.00  0.00  0.00  0.00
  WS02006239WS02006238    1.00   0.00  0.00  0.00  1.00  0.00  0.00  0.00  0.53  0.00
  WS02006240WS02006239    1.00   0.00  0.00  0.00  0.41  0.00  0.00  0.59  0.02  0.00
  WS02006242WS02006240    1.00   0.00  0.00  0.00  1.00  0.00  0.00  0.00  0.00  0.00
  WS02006243WS02006242    1.00   0.00  0.00  0.00  0.99  0.00  0.00  0.01  0.73  0.00
  WS02006245WS02006243    1.00   0.00  0.00  0.00  0.45  0.00  0.00  0.55  0.01  0.00
  WS02006247WS02006245    1.00   0.00  0.00  0.00  0.99  0.00  0.00  0.01  0.00  0.00
  WS02006248WS02006247    1.00   0.00  0.00  0.00  0.99  0.00  0.00  0.01  0.23  0.00
  WS02006249WS02006248    1.00   0.00  0.00  0.00  0.31  0.00  0.69  0.00  0.00  0.00
  WS02006251WS02006249    1.00   0.00  0.00  0.00  0.99  0.01  0.00  0.00  0.74  0.00
  WS02006252WS02006251    1.00   0.00  0.28  0.00  0.13  0.00  0.59  0.00  0.01  0.00
  WS02006256WS02006235    1.00   0.00  0.00  0.00  0.99  0.01  0.00  0.00  0.00  0.00
  WSF200WS02003060        1.00   0.00  0.13  0.00  0.70  0.17  0.00  0.00  0.68  0.00
  YS02001580YS02001583    1.00   0.22  0.61  0.00  0.17  0.00  0.00  0.00  0.70  0.00
  YS02001583YS02001586    1.00   0.49  0.28  0.00  0.23  0.00  0.00  0.00  0.70  0.00
  YS02001586YS02001590    1.00   0.13  0.00  0.00  0.38  0.04  0.00  0.45  0.34  0.00
  YS02001590YS02001593    1.00   0.13  0.01  0.00  0.09  0.00  0.78  0.00  0.00  0.00
  YS02001593YS02001596    1.00   0.13  0.00  0.00  0.11  0.01  0.00  0.75  0.02  0.00
  YS02001596YS02001600    1.00   0.14  0.00  0.00  0.19  0.01  0.00  0.66  0.06  0.00
  YS02001600YS02001601    1.00   0.13  0.01  0.00  0.86  0.00  0.00  0.00  0.62  0.00
  YS02001601YS02001602    1.00   0.13  0.01  0.00  0.87  0.00  0.00  0.00  0.00  0.00
  YS02001602YS02001605    1.00   0.13  0.00  0.00  0.86  0.00  0.00  0.00  0.00  0.00
  YS02001605YS02001607    1.00   0.14  0.00  0.00  0.86  0.00  0.00  0.00  0.00  0.00
  YS02001607YS02001610    1.00   0.13  0.01  0.00  0.86  0.00  0.00  0.00  0.01  0.00
  YS02001610YS02001613    1.00   0.13  0.00  0.00  0.87  0.00  0.00  0.00  0.00  0.00
  YS02001613YS02001616    1.00   0.13  0.00  0.00  0.87  0.00  0.00  0.00  0.00  0.00
  YS02001616YS02001619    1.00   0.13  0.00  0.00  0.87  0.00  0.00  0.00  0.00  0.00
  YS02001619YS02001622    1.00   0.13  0.00  0.00  0.87  0.00  0.00  0.00  0.35  0.00
  YS02001622YS02001625    1.00   0.13  0.00  0.00  0.87  0.00  0.00  0.00  0.04  0.00
  YS02001625YS02001629    1.00   0.13  0.05  0.00  0.14  0.00  0.69  0.00  0.00  0.00
  YS02001629YS02163301    1.00   0.15  0.01  0.00  0.84  0.00  0.00  0.00  0.00  0.00
  YS02001633YS02163601    1.00   0.00  0.01  0.00  0.99  0.00  0.00  0.00  0.15  0.00
  YS02001641YS02001644    1.00   0.00  0.01  0.00  0.99  0.00  0.00  0.00  0.00  0.00
  YS02001644YS02001647    1.00   0.00  0.17  0.00  0.83  0.00  0.00  0.00  0.00  0.00
  YS02001647YS02001649    1.00   0.00  0.17  0.00  0.56  0.27  0.00  0.00  0.59  0.00
  YS02001649YS02001757    1.00   0.00  0.00  0.00  0.70  0.30  0.00  0.00  0.57  0.00
  YS02001652YS02001649    1.00   0.00  0.00  0.00  0.97  0.03  0.00  0.00  0.76  0.00
  YS02001655YS02001652    1.00   0.00  0.00  0.00  0.15  0.03  0.00  0.82  0.07  0.00
  YS02001658YS02001655    1.00   0.00  0.14  0.00  0.65  0.21  0.00  0.00  0.72  0.00
  YS02001661YS02001658    1.00   0.14  0.00  0.00  0.51  0.35  0.00  0.00  0.74  0.00
  YS02001664YS02001661    1.00   0.13  0.00  0.00  0.76  0.12  0.00  0.00  0.87  0.00
  YS02001745YS02001748    1.00   0.00  0.00  0.00  0.07  0.01  0.00  0.93  0.05  0.00
  YS02001748YS02001751    1.00   0.00  0.00  0.00  0.81  0.19  0.00  0.00  0.78  0.00
  YS02001751YS02001754    1.00   0.00  0.00  0.00  0.12  0.00  0.00  0.88  0.02  0.00
  YS02001754YS02001757    1.00   0.00  0.00  0.00  1.00  0.00  0.00  0.00  0.87  0.00
  YS02001757CaochengTiaoxuchi    1.00   0.00  0.00  0.00  1.00  0.00  0.00  0.00  0.86  0.00
  YS02001759YS02001757    1.00   0.00  0.00  0.00  1.00  0.00  0.00  0.00  0.63  0.00
  YS02001762YS02001759    1.00   0.00  0.00  0.00  1.00  0.00  0.00  0.00  0.03  0.00
  YS02001765YS02001762    1.00   0.00  0.00  0.00  1.00  0.00  0.00  0.00  0.75  0.00
  YS02001767YS02001765    1.00   0.00  0.00  0.00  1.00  0.00  0.00  0.00  0.00  0.00
  YS02001770YS02001767    1.00   0.00  0.00  0.00  1.00  0.00  0.00  0.00  0.00  0.00
  YS02001774YS02001770    1.00   0.00  0.13  0.00  0.60  0.00  0.26  0.00  0.03  0.00
  YS02001779YS02001774    1.00   0.00  0.00  0.00  1.00  0.00  0.00  0.00  0.80  0.00
  YS02001783YS02001784    1.00   0.00  0.18  0.00  0.82  0.00  0.00  0.00  0.57  0.00
  YS02001784YS02001785    1.00   0.00  0.00  0.00  1.00  0.00  0.00  0.00  0.16  0.00
  YS02001786YS02001788    1.00   0.00  0.00  0.00  0.79  0.21  0.00  0.00  0.00  0.00
  YS02001788YS02001790    1.00   0.00  0.00  0.00  0.20  0.80  0.00  0.00  0.83  0.00
  YS02001790YS02001791    1.00   0.00  0.00  0.00  0.01  0.99  0.00  0.00  0.17  0.00
  YS02001791YS02001793    1.00   0.00  0.00  0.00  0.00  1.00  0.00  0.00  0.01  0.00
  YS02001793JiankangQianchi    1.00   0.00  0.00  0.00  0.99  0.01  0.00  0.00  0.97  0.00
  YS02001882YS02001884    1.00   0.15  0.01  0.00  0.84  0.00  0.00  0.00  0.00  0.00
  YS02001884YS02001887    1.00   0.06  0.05  0.00  0.89  0.00  0.00  0.00  0.00  0.00
  YS02001887YS02001890    1.00   0.00  0.00  0.00  0.97  0.00  0.03  0.00  0.00  0.00
  YS02001890YS02001895    1.00   0.00  0.16  0.00  0.84  0.00  0.00  0.00  0.00  0.00
  YS02001895YS02001898    1.00   0.16  0.00  0.00  0.82  0.00  0.02  0.00  0.00  0.00
  YS02001898YS02001901    1.00   0.16  0.00  0.00  0.83  0.00  0.00  0.00  0.01  0.00
  YS02001901YS02001904    1.00   0.16  0.00  0.00  0.84  0.00  0.00  0.00  0.00  0.00
  YS02001904YS02001907    1.00   0.00  0.16  0.00  0.84  0.00  0.00  0.00  0.00  0.00
  YS02001907YS02006553    1.00   0.00  0.02  0.00  0.98  0.00  0.00  0.00  0.00  0.00
  YS02001910YS02001907    1.00   0.00  0.00  0.00  0.97  0.00  0.00  0.03  0.12  0.00
  YS02001915YS02001910    1.00   0.00  0.00  0.00  0.97  0.03  0.00  0.00  0.16  0.00
  YS02001918YS02001915    1.00   0.00  0.01  0.00  0.98  0.02  0.00  0.00  0.78  0.00
  YS02001920YS02001918    1.00   0.00  0.01  0.00  0.99  0.00  0.00  0.00  0.00  0.00
  YS02001923YS02001920    1.00   0.00  0.00  0.00  1.00  0.00  0.00  0.00  0.95  0.00
  YS02001926YS02001923    1.00   0.00  0.07  0.00  0.04  0.00  0.89  0.00  0.00  0.00
  YS02001929YS02001926    1.00   0.00  0.13  0.00  0.87  0.00  0.00  0.00  0.84  0.00
  YS02006553YS02006556    1.00   0.01  0.00  0.00  0.99  0.00  0.00  0.00  0.03  0.00
  YS02006556YS02006558    1.00   0.00  0.00  0.00  1.00  0.00  0.00  0.00  0.00  0.00
  YS02006558YS02006561    1.00   0.18  0.00  0.00  0.04  0.79  0.00  0.00  0.19  0.00
  YS02006561YS02001783    1.00   0.18  0.00  0.00  0.06  0.76  0.00  0.00  0.72  0.00
  YS02163301YS02001633    1.00   0.00  0.15  0.00  0.85  0.00  0.00  0.00  0.00  0.00
  YS02163601YS02164001    1.00   0.00  0.08  0.00  0.92  0.00  0.00  0.00  0.00  0.00
  YS02164001YS02001641    1.00   0.01  0.07  0.00  0.92  0.00  0.00  0.00  0.05  0.00
  
  
  *************************
  Conduit Surcharge Summary
  *************************
  
  ----------------------------------------------------------------------------
                                                           Hours        Hours 
                         --------- Hours Full --------   Above Full   Capacity
  Conduit                Both Ends  Upstream  Dnstream   Normal Flow   Limited
  ----------------------------------------------------------------------------
  WS02003072WS02003073        0.01      0.01      0.01      1.53         0.01
  WS02004404WS02004405        0.01      0.01      0.01      1.87         0.01
  WS02004405WS02004406        0.01      0.01      0.01      0.83         0.01
  WS02006109WS02006110        0.89      0.89      1.40      0.96         0.01
  WS02006110WS02006113        0.01      0.01      1.40      0.01         0.01
  WS02006111WS02006112        0.01      0.01      1.49      0.01         0.01
  WS02006112WS02006115        0.01      0.01      0.89      0.01         0.01
  WS02006228WS02006109        1.40      1.40      1.40      1.55         1.39
  WS02006229WS02006228        1.39      1.39      1.39      1.50         1.38
  WS02006230WS02006229        1.42      1.46      1.42      2.59         1.42
  WS02006231WS02006230        0.89      0.89      1.02      2.21         0.01
  WS02006232WS02006231        0.99      0.99      1.41      1.04         0.01
  WS02006234WS02006232        1.37      1.37      1.41      1.02         1.01
  WS02006235WS02006234        1.24      1.24      1.37      1.99         0.01
  WS02006238WS02006235        1.39      1.39      1.40      0.01         0.01
  WS02006239WS02006238        1.40      1.40      1.40      1.37         1.22
  WS02006240WS02006239        1.39      1.40      1.39      1.38         1.16
  WS02006242WS02006240        1.39      1.39      1.41      1.45         0.01
  WS02006243WS02006242        1.38      1.38      1.40      0.01         0.03
  WS02006245WS02006243        1.37      1.37      1.38      0.48         0.54
  WS02006247WS02006245        1.37      1.37      1.37      1.61         1.36
  WS02006248WS02006247        1.37      1.37      1.37      0.01         0.03
  WS02006249WS02006248        1.36      1.36      1.36      1.58         0.01
  WS02006251WS02006249        1.36      1.36      1.36      1.47         1.32
  WS02006252WS02006251        1.55      1.55      1.55      1.56         0.01
  WS02006256WS02006235        2.08      2.12      3.76      1.39         0.01
  YS02001580YS02001583        0.40      0.40      0.45      0.01         0.01
  YS02001583YS02001586        0.41      0.41      0.55      0.01         0.01
  YS02001586YS02001590        0.55      0.55      0.62      0.01         0.01
  YS02001590YS02001593        0.62      0.62      0.64      0.67         0.01
  YS02001593YS02001596        0.63      0.63      0.72      0.01         0.01
  YS02001596YS02001600        0.77      0.77      0.87      0.01         0.01
  YS02001600YS02001601        0.93      0.93      1.30      0.01         0.01
  YS02001601YS02001602        1.14      1.14      1.36      0.88         0.01
  YS02001602YS02001605        1.07      1.07      1.14      2.07         0.01
  YS02001605YS02001607        1.02      1.07      1.02      1.23         1.02
  YS02001607YS02001610        0.59      0.59      0.62      0.01         0.01
  YS02001610YS02001613        0.58      0.58      0.62      0.01         0.01
  YS02001613YS02001616        0.54      0.54      0.58      0.01         0.01
  YS02001616YS02001619        0.54      0.54      0.54      0.01         0.01
  YS02001619YS02001622        0.53      0.54      0.53      0.64         0.50
  YS02001622YS02001625        0.53      0.53      0.70      0.01         0.01
  YS02001625YS02001629        0.47      0.47      0.70      0.01         0.01
  YS02001629YS02163301        0.69      0.69      0.70      0.12         0.16
  YS02001633YS02163601        0.72      0.72      0.75      0.38         0.37
  YS02001641YS02001644        0.63      0.66      0.63      1.42         0.63
  YS02001644YS02001647        0.43      0.43      0.63      0.03         0.01
  YS02001647YS02001649        0.43      0.43      0.54      0.01         0.01
  YS02001649YS02001757        0.54      0.54      0.60      0.20         0.16
  YS02001652YS02001649        0.37      0.37      0.54      0.01         0.01
  YS02001655YS02001652        0.19      0.19      0.35      0.01         0.01
  YS02001658YS02001655        0.02      0.02      0.19      0.01         0.01
  YS02001661YS02001658        0.01      0.01      0.02      0.01         0.01
  YS02001748YS02001751        0.01      0.01      0.08      0.01         0.01
  YS02001751YS02001754        0.08      0.08      0.24      0.01         0.01
  YS02001754YS02001757        0.30      0.30      0.60      0.01         0.01
  YS02001757CaochengTiaoxuchi        0.60      0.60      1.11      0.24         0.22
  YS02001759YS02001757        0.50      0.50      0.60      0.01         0.01
  YS02001762YS02001759        0.47      0.47      0.50      0.01         0.02
  YS02001765YS02001762        0.43      0.43      0.47      0.01         0.01
  YS02001767YS02001765        0.39      0.39      0.43      0.01         0.02
  YS02001770YS02001767        0.39      0.39      0.39      0.37         0.25
  YS02001774YS02001770        0.37      0.37      0.45      0.01         0.01
  YS02001779YS02001774        0.24      0.24      0.45      0.01         0.01
  YS02001783YS02001784        0.34      0.36      0.34      0.49         0.34
  YS02001784YS02001785        0.24      0.34      0.24      0.71         0.24
  YS02001786YS02001788        0.01      0.24      0.01      0.58         0.01
  YS02001790YS02001791        0.01      0.01      0.01      0.33         0.01
  YS02001793JiankangQianchi        0.01      0.01      7.70      0.01         0.01
  YS02001882YS02001884        0.31      0.31      0.32      0.01         0.01
  YS02001884YS02001887        0.34      0.34      0.35      0.01         0.01
  YS02001887YS02001890        0.36      0.36      0.37      0.01         0.01
  YS02001890YS02001895        0.30      0.30      0.39      0.01         0.01
  YS02001895YS02001898        0.29      0.29      0.30      0.01         0.01
  YS02001898YS02001901        0.30      0.30      0.34      0.01         0.01
  YS02001901YS02001904        0.33      0.33      0.34      0.01         0.01
  YS02001904YS02001907        0.33      0.33      0.56      0.01         0.01
  YS02001907YS02006553        0.72      0.72      0.78      0.01         0.01
  YS02001910YS02001907        0.39      0.39      0.55      0.01         0.01
  YS02001915YS02001910        0.31      0.31      0.39      0.01         0.01
  YS02001918YS02001915        0.23      0.23      0.31      0.01         0.01
  YS02001920YS02001918        0.23      0.23      0.24      0.01         0.01
  YS02001923YS02001920        0.17      0.17      0.24      0.01         0.01
  YS02001926YS02001923        0.01      0.01      0.01      0.01         0.01
  YS02001929YS02001926        0.01      0.01      0.01      0.01         0.01
  YS02006553YS02006556        0.47      0.47      0.56      0.01         0.01
  YS02006556YS02006558        0.51      0.51      0.57      0.01         0.01
  YS02006558YS02006561        0.27      0.46      0.27      0.66         0.27
  YS02006561YS02001783        0.19      0.19      0.36      0.01         0.01
  YS02163301YS02001633        0.70      0.70      0.73      0.01         0.01
  YS02163601YS02164001        0.67      0.67      0.75      0.05         0.01
  YS02164001YS02001641        0.66      0.67      0.66      0.73         0.62
  
  
  ***************
  Pumping Summary
  ***************
  
  ---------------------------------------------------------------------------------------------------------
                                                  Min       Avg       Max     Total     Power    % Time Off
                        Percent   Number of      Flow      Flow      Flow    Volume     Usage    Pump Curve
  Pump                 Utilized   Start-Ups       LPS       LPS       LPS  10^6 ltr     Kw-hr    Low   High
  ---------------------------------------------------------------------------------------------------------
  CC-R1                   18.61          14      0.00    683.00    683.00     3.661     66.60    0.0   29.9
  CC-R2                   17.45          14      0.00    683.00    683.00     3.433     62.36    0.0   31.9
  CC-S1                   20.75          14      0.00    200.00    200.00     1.195      7.18    0.0    0.0
  CC-S2                   19.42          14      0.00    200.00    200.00     1.118      6.72    0.0    0.0
  JK-R1                    5.74           9      0.00   1000.00   1000.00     1.652     18.86    0.0    0.0
  JK-R2                    0.16           1      0.00   1000.00   1000.00     0.047      0.36    0.0    0.0
  JK-S                    17.37          13      0.00    300.00    300.00     1.500     20.68    0.0    0.0
  XR-1                    97.91           2      0.00     95.00     95.00     2.679      9.60    0.0    0.0
  XR-2                    93.94           2      0.00     95.00     95.00     2.570      8.76    0.0    0.0
  XR-3                     0.00           1      0.00     95.00     95.00     0.000      0.00    0.0    0.0
  XR-4                     0.00           1      0.00     95.00     95.00     0.000      0.00    0.0    0.0
  

  Analysis begun on:  Wed Nov  5 16:32:11 2025
  Analysis ended on:  Wed Nov  5 16:32:14 2025
  Total elapsed time: 00:00:03