
  EPA STORM WATER MANAGEMENT MODEL - VERSION 5.2 (Build 5.2.4)
  PYSWMM TOOLKIT API - VERSION v1.0 (2023-11-27)
  ------------------------------------------------------------

  WARNING 04: minimum elevation drop used for Conduit WS02004404WS02004405
  WARNING 03: negative offset ignored for Link YS02001904YS02001907
  
  ****************
  Analysis Options
  ****************
  Flow Units ............... LPS
  Process Models:
    Rainfall/Runoff ........ YES
    RDII ................... NO
    Snowmelt ............... NO
    Groundwater ............ NO
    Flow Routing ........... YES
    Ponding Allowed ........ NO
    Water Quality .......... NO
  Infiltration Method ...... HORTON
  Flow Routing Method ...... DYNWAVE
  Surcharge Method ......... EXTRAN
  Starting Date ............ 08/28/2015 08:00:00
  Ending Date .............. 08/28/2015 16:00:00
  Antecedent Dry Days ...... 8.0
  Report Time Step ......... 00:01:00
  Wet Time Step ............ 00:01:00
  Dry Time Step ............ 00:01:00
  Routing Time Step ........ 30.00 sec
  Variable Time Step ....... YES
  Maximum Trials ........... 8
  Number of Threads ........ 4
  Head Tolerance ........... 0.001500 m
  
  
  **************************        Volume         Depth
  Runoff Quantity Continuity     hectare-m            mm
  **************************     ---------       -------
  Initial LID Storage ......         0.049         1.488
  Total Precipitation ......         1.882        56.725
  Evaporation Loss .........         0.000         0.000
  Infiltration Loss ........         0.078         2.361
  Surface Runoff ...........         1.381        41.637
  Final Storage ............         0.472        14.237
  Continuity Error (%) .....        -0.040
  
  
  **************************        Volume        Volume
  Flow Routing Continuity        hectare-m      10^6 ltr
  **************************     ---------     ---------
  Dry Weather Inflow .......         0.602         6.020
  Wet Weather Inflow .......         1.381        13.810
  Groundwater Inflow .......         0.000         0.000
  RDII Inflow ..............         0.000         0.000
  External Inflow ..........         0.105         1.045
  External Outflow .........         1.797        17.968
  Flooding Loss ............         0.265         2.652
  Evaporation Loss .........         0.000         0.000
  Exfiltration Loss ........         0.000         0.000
  Initial Stored Volume ....         0.303         3.031
  Final Stored Volume ......         0.334         3.337
  Continuity Error (%) .....        -0.213
  
  
  *************************
  Highest Continuity Errors
  *************************
  Node YS02001884 (5.00%)
  Node YS02001583 (-4.75%)
  Node YS02001774 (1.74%)
  
  
  ***************************
  Time-Step Critical Elements
  ***************************
  Link WS02004404WS02004405 (29.87%)
  Link WS02006238WS02006235 (18.26%)
  Link WS02006252WS02006251 (14.68%)
  Link YS02001791YS02001793 (10.74%)
  Link WS02006235WS02006234 (7.29%)
  
  
  ********************************
  Highest Flow Instability Indexes
  ********************************
  Link WS02006113WS02006111 (30)
  Link WS02006238WS02006235 (25)
  Link WS02006111WS02006112 (20)
  Link WS02006235WS02006234 (18)
  Link WS02006229WS02006228 (18)
  
  
  *********************************
  Most Frequent Nonconverging Nodes
  *********************************
  Node CC-1 (9.88%)
  Node CC-2 (9.88%)
  Node JK-1 (9.88%)
  Node JK-2 (9.88%)
  Node WSC (9.88%)
  
  
  *************************
  Routing Time Step Summary
  *************************
  Minimum Time Step           :     0.01 sec
  Average Time Step           :     3.25 sec
  Maximum Time Step           :     7.04 sec
  % of Time in Steady State   :     0.00
  Average Iterations per Step :     3.08
  % of Steps Not Converging   :     9.88
  Time Step Frequencies       :
     30.000 - 13.228 sec      :     0.00 %
     13.228 -  5.833 sec      :    23.11 %
      5.833 -  2.572 sec      :    29.13 %
      2.572 -  1.134 sec      :    26.72 %
      1.134 -  0.500 sec      :    21.04 %
  
  
  ***************************
  Subcatchment Runoff Summary
  ***************************
  
  ------------------------------------------------------------------------------------------------------------------------------
                            Total      Total      Total      Total     Imperv       Perv      Total       Total     Peak  Runoff
                           Precip      Runon       Evap      Infil     Runoff     Runoff     Runoff      Runoff   Runoff   Coeff
  Subcatchment                 mm         mm         mm         mm         mm         mm         mm    10^6 ltr      LPS
  ------------------------------------------------------------------------------------------------------------------------------
  sub60                     56.72       0.00       0.00       1.39      37.60       3.86      41.46        0.54   330.05   0.731
  sub61                     56.72       0.00       0.00       2.14      37.56       5.74      43.30        0.79   483.01   0.763
  sub62                     56.72       0.00       0.00       0.95      40.04       2.62      42.67        1.17   666.27   0.752
  sub63                     56.72       0.00       0.00       3.95      32.17       9.52      41.69        0.95   558.17   0.735
  sub64                     56.72       0.00       0.00       1.89      36.63       4.74      41.37        0.99   548.96   0.729
  sub65                     56.72       0.00       0.00       1.74      39.53       4.32      43.86        1.21   643.30   0.773
  sub66                     56.72       0.00       0.00       4.63      31.10       8.42      39.52        1.84   867.42   0.697
  sub67                     56.72       0.00       0.00       0.94      41.06       2.72      43.78        0.81   506.06   0.772
  sub68                     56.72       0.00       0.00       1.64      36.26       4.40      40.66        1.12   661.86   0.717
  sub69                     56.72       0.00       0.00       1.52      38.13       5.22      43.35        1.60   831.10   0.764
  sub70                     56.72       0.00       0.00       5.11      30.54      10.68      41.22        1.19   503.98   0.727
  sub71                     56.72       0.00       0.00       0.88      36.37       2.37      38.74        1.01   553.11   0.683
  sub72                     56.72       0.00       0.00       0.84      39.29       2.20      41.49        0.57   289.16   0.731
  

  ***********************
  LID Performance Summary
  ***********************

  --------------------------------------------------------------------------------------------------------------------
                                         Total      Evap     Infil   Surface    Drain    Initial     Final  Continuity
                                        Inflow      Loss      Loss   Outflow   Outflow   Storage   Storage       Error
  Subcatchment      LID Control             mm        mm        mm        mm        mm        mm        mm           %
  --------------------------------------------------------------------------------------------------------------------
  sub60             GreenRoof            56.72      0.00      0.00      0.00      0.00      7.05     63.85       -0.12
  sub61             GreenRoof            56.72      0.00      0.00      0.00      0.00      7.05     63.85       -0.12
  sub62             GreenRoof            56.72      0.00      0.00      0.00      0.00      7.05     63.85       -0.12
  sub63             GreenRoof            56.72      0.00      0.00      0.00      0.00      7.05     63.85       -0.12
  sub64             GreenRoof            56.72      0.00      0.00      0.00      0.00      7.05     63.85       -0.12
  sub65             GreenRoof            56.72      0.00      0.00      0.00      0.00      7.05     63.85       -0.12
  sub66             GreenRoof            56.72      0.00      0.00      0.00      0.00      7.05     63.85       -0.12
  sub67             GreenRoof            56.72      0.00      0.00      0.00      0.00      7.05     63.85       -0.12
  sub68             GreenRoof            56.72      0.00      0.00      0.00      0.00      7.05     63.85       -0.12
  sub69             GreenRoof            56.72      0.00      0.00      0.00      0.00      7.05     63.85       -0.12
  sub70             GreenRoof            56.72      0.00      0.00      0.00      0.00      7.05     63.85       -0.12
  sub71             GreenRoof            56.72      0.00      0.00      0.00      0.00      7.05     63.85       -0.12
  sub72             GreenRoof            56.72      0.00      0.00      0.00      0.00      7.05     63.85       -0.12
  
  ******************
  Node Depth Summary
  ******************
  
  ---------------------------------------------------------------------------------
                                 Average  Maximum  Maximum  Time of Max    Reported
                                   Depth    Depth      HGL   Occurrence   Max Depth
  Node                 Type       Meters   Meters   Meters  days hr:min      Meters
  ---------------------------------------------------------------------------------
  WS02001211           JUNCTION     0.60     0.64     5.48     0  03:03        0.64
  WS02001212           JUNCTION     0.34     0.38     5.45     0  03:03        0.38
  WS02001213           JUNCTION     0.53     0.65     5.41     0  03:00        0.65
  WS02003059           JUNCTION     0.59     0.72     5.40     0  02:59        0.72
  WS02003060           JUNCTION     0.30     0.45     5.39     0  02:59        0.45
  WS02003066           JUNCTION     0.16     0.30     5.85     0  02:58        0.30
  WS02003067           JUNCTION     0.44     0.70     6.02     0  02:58        0.70
  WS02003069           JUNCTION     0.34     0.51     5.10     0  02:59        0.51
  WS02003072           JUNCTION     0.40     0.58     4.95     0  03:00        0.58
  WS02003073           JUNCTION     0.23     0.35     4.41     0  03:01        0.35
  WS02004138           JUNCTION     0.13     0.14     7.39     0  00:29        0.14
  WS02004139           JUNCTION     0.54     0.58     5.49     0  03:05        0.58
  WS02004401           JUNCTION     0.53     0.85     6.85     0  02:56        0.85
  WS02004402           JUNCTION     0.56     0.88     6.84     0  02:56        0.88
  WS02004403           JUNCTION     0.58     0.89     6.82     0  02:56        0.89
  WS02004404           JUNCTION     0.66     0.96     6.81     0  02:56        0.96
  WS02004405           JUNCTION     0.66     0.96     6.81     0  02:56        0.96
  WS02004406           JUNCTION     0.67     0.96     6.79     0  02:56        0.96
  WS02004407           JUNCTION     0.14     0.30     6.61     0  02:57        0.30
  WS02004409           JUNCTION     0.32     0.67     6.44     0  02:57        0.67
  WS02004410           JUNCTION     0.34     0.68     6.40     0  02:57        0.68
  WS02004411           JUNCTION     0.37     0.69     6.37     0  02:57        0.69
  WS02004412           JUNCTION     0.39     0.70     6.34     0  02:58        0.70
  WS02004413           JUNCTION     0.55     0.86     6.33     0  02:58        0.86
  WS02006109           JUNCTION     0.60     1.06     7.68     0  03:18        0.99
  WS02006110           JUNCTION     0.60     1.05     7.63     0  03:18        0.93
  WS02006111           JUNCTION     0.15     0.29     6.99     0  03:20        0.29
  WS02006112           JUNCTION     0.68     1.07     6.95     0  02:55        1.06
  WS02006113           JUNCTION     0.23     0.46     7.35     0  03:20        0.46
  WS02006115           JUNCTION     0.41     0.75     6.89     0  02:49        0.75
  WS02006116           JUNCTION     0.50     0.83     6.87     0  02:55        0.83
  WS02006228           JUNCTION     0.59     1.08     7.73     0  03:18        1.07
  WS02006229           JUNCTION     0.56     1.11     7.80     0  03:18        1.08
  WS02006230           JUNCTION     0.56     1.28     8.02     0  03:18        1.22
  WS02006231           JUNCTION     0.37     0.98     8.11     0  03:18        0.95
  WS02006232           JUNCTION     0.51     1.17     8.21     0  02:08        1.17
  WS02006234           JUNCTION     0.44     1.21     8.36     0  02:08        1.21
  WS02006235           JUNCTION     0.48     1.30     8.46     0  02:08        1.30
  WS02006238           JUNCTION     0.51     1.33     8.48     0  02:08        1.33
  WS02006239           JUNCTION     0.47     1.32     8.53     0  02:08        1.32
  WS02006240           JUNCTION     0.44     1.28     8.57     0  02:08        1.28
  WS02006242           JUNCTION     0.49     1.35     8.62     0  02:08        1.35
  WS02006243           JUNCTION     0.41     1.23     8.65     0  02:08        1.23
  WS02006245           JUNCTION     0.41     1.20     8.68     0  02:08        1.20
  WS02006247           JUNCTION     0.43     1.19     8.69     0  02:08        1.19
  WS02006248           JUNCTION     0.40     1.10     8.69     0  02:08        1.10
  WS02006249           JUNCTION     0.42     1.09     8.69     0  02:06        1.09
  WS02006251           JUNCTION     0.42     1.32     8.99     0  02:07        1.13
  WS02006252           JUNCTION     0.28     1.50     9.74     0  00:00        0.68
  WS02006256           JUNCTION     1.18     2.35     9.28     0  00:00        2.35
  WSF200               JUNCTION     0.14     0.31     5.54     0  02:59        0.31
  YS02001580           JUNCTION     0.08     1.05     9.59     0  02:16        0.77
  YS02001583           JUNCTION     0.11     1.03     9.52     0  02:16        0.82
  YS02001586           JUNCTION     0.20     1.13     9.30     0  02:16        1.13
  YS02001590           JUNCTION     0.31     1.40     9.26     0  02:16        1.40
  YS02001593           JUNCTION     0.23     1.37     9.23     0  02:18        1.37
  YS02001596           JUNCTION     0.33     1.68     9.10     0  02:16        1.68
  YS02001600           JUNCTION     0.43     1.87     9.00     0  02:16        1.87
  YS02001601           JUNCTION     0.63     2.06     8.90     0  02:15        2.06
  YS02001602           JUNCTION     0.53     1.87     8.77     0  02:18        1.87
  YS02001605           JUNCTION     0.49     1.78     8.68     0  02:21        1.78
  YS02001607           JUNCTION     0.47     1.65     8.49     0  02:20        1.64
  YS02001610           JUNCTION     0.51     1.68     8.48     0  02:18        1.68
  YS02001613           JUNCTION     0.47     1.66     8.50     0  02:25        1.66
  YS02001616           JUNCTION     0.40     1.61     8.52     0  02:21        1.61
  YS02001619           JUNCTION     0.38     1.60     8.53     0  02:25        1.60
  YS02001622           JUNCTION     0.37     1.58     8.48     0  02:21        1.58
  YS02001625           JUNCTION     0.63     1.78     8.38     0  02:19        1.78
  YS02001629           JUNCTION     0.51     1.85     8.40     0  02:20        1.85
  YS02001633           JUNCTION     0.58     2.08     8.53     0  02:21        2.08
  YS02001641           JUNCTION     0.56     2.08     8.52     0  02:21        2.08
  YS02001644           JUNCTION     0.55     1.92     8.35     0  02:21        1.92
  YS02001647           JUNCTION     0.33     1.71     8.32     0  02:25        1.71
  YS02001649           JUNCTION     0.38     1.89     8.28     0  02:24        1.89
  YS02001652           JUNCTION     0.25     1.71     8.31     0  02:24        1.69
  YS02001655           JUNCTION     0.19     1.61     8.46     0  02:21        1.45
  YS02001658           JUNCTION     0.13     1.48     8.62     0  02:21        1.17
  YS02001661           JUNCTION     0.16     0.97     8.37     0  02:24        0.92
  YS02001664           JUNCTION     0.07     0.39     8.32     0  02:25        0.38
  YS02001745           JUNCTION     0.07     0.67     8.19     0  02:25        0.67
  YS02001748           JUNCTION     0.12     1.24     8.32     0  02:23        1.20
  YS02001751           JUNCTION     0.16     1.42     8.30     0  02:24        1.42
  YS02001754           JUNCTION     0.21     1.66     8.27     0  02:24        1.66
  YS02001757           JUNCTION     0.39     1.94     8.20     0  02:24        1.94
  YS02001759           JUNCTION     0.33     1.89     8.25     0  02:24        1.89
  YS02001762           JUNCTION     0.32     1.89     8.29     0  02:21        1.89
  YS02001765           JUNCTION     0.30     1.93     8.38     0  02:21        1.93
  YS02001767           JUNCTION     0.29     1.98     8.47     0  02:21        1.98
  YS02001770           JUNCTION     0.31     1.95     8.44     0  02:21        1.95
  YS02001774           JUNCTION     0.37     1.97     8.39     0  02:21        1.97
  YS02001779           JUNCTION     0.20     1.68     8.37     0  02:19        1.68
  YS02001783           JUNCTION     0.27     1.27     7.41     0  02:22        1.22
  YS02001784           JUNCTION     0.28     1.14     7.21     0  02:22        1.09
  YS02001786           JUNCTION     0.24     0.89     6.92     0  02:22        0.87
  YS02001788           JUNCTION     0.18     0.62     6.60     0  02:23        0.62
  YS02001790           JUNCTION     0.21     0.72     6.37     0  02:25        0.71
  YS02001791           JUNCTION     0.13     0.43     5.90     0  02:25        0.43
  YS02001793           JUNCTION     0.07     0.29     5.12     0  02:26        0.27
  YS02001882           JUNCTION     0.32     1.65     8.37     0  02:25        1.65
  YS02001884           JUNCTION     0.41     1.74     8.36     0  02:22        1.73
  YS02001887           JUNCTION     0.49     1.82     8.36     0  02:25        1.82
  YS02001890           JUNCTION     0.52     1.81     8.32     0  02:22        1.81
  YS02001895           JUNCTION     0.29     1.57     8.31     0  02:22        1.56
  YS02001898           JUNCTION     0.30     1.57     8.30     0  02:22        1.55
  YS02001901           JUNCTION     0.41     1.68     8.29     0  02:25        1.68
  YS02001904           JUNCTION     0.39     1.64     8.27     0  02:22        1.63
  YS02001907           JUNCTION     0.71     1.96     8.25     0  02:22        1.96
  YS02001910           JUNCTION     0.51     1.99     8.49     0  02:23        1.92
  YS02001915           JUNCTION     0.32     1.94     8.66     0  02:23        1.81
  YS02001918           JUNCTION     0.15     1.81     8.88     0  02:23        1.58
  YS02001920           JUNCTION     0.24     2.08     9.09     0  02:23        1.69
  YS02001923           JUNCTION     0.11     1.97     9.23     0  02:23        1.47
  YS02001926           JUNCTION     0.16     1.88     9.32     0  02:23        1.24
  YS02001929           JUNCTION     0.08     1.78     9.47     0  02:23        0.88
  YS02006553           JUNCTION     0.71     1.97     8.26     0  02:22        1.96
  YS02006556           JUNCTION     0.68     1.95     8.26     0  02:22        1.94
  YS02006558           JUNCTION     0.73     1.99     8.25     0  02:22        1.98
  YS02006561           JUNCTION     0.16     0.95     7.61     0  02:22        0.88
  YS02163301           JUNCTION     0.53     1.97     8.49     0  02:21        1.97
  YS02163601           JUNCTION     0.62     2.08     8.48     0  02:21        2.08
  YS02164001           JUNCTION     0.55     2.10     8.56     0  02:21        2.10
  CC-1                 OUTFALL      0.00     0.00     0.00     0  00:00        0.00
  CC-2                 OUTFALL      0.00     0.00     0.00     0  00:00        0.00
  JK-1                 OUTFALL      0.00     0.00     0.00     0  00:00        0.00
  JK-2                 OUTFALL      0.00     0.00     0.00     0  00:00        0.00
  WSC                  OUTFALL      0.23     0.35     1.02     0  03:01        0.35
  CC-storage           STORAGE      0.84     1.64     7.14     0  02:41        1.64
  JK-storage           STORAGE      3.16     4.22     5.02     0  02:30        4.22
  XR-storage           STORAGE      7.83     9.26     7.26     0  08:00        9.26
  
  
  *******************
  Node Inflow Summary
  *******************
  
  -------------------------------------------------------------------------------------------------
                                  Maximum  Maximum                  Lateral       Total        Flow
                                  Lateral    Total  Time of Max      Inflow      Inflow     Balance
                                   Inflow   Inflow   Occurrence      Volume      Volume       Error
  Node                 Type           LPS      LPS  days hr:min    10^6 ltr    10^6 ltr     Percent
  -------------------------------------------------------------------------------------------------
  WS02001211           JUNCTION      7.35   200.44     0  03:08       0.212        5.44       0.611
  WS02001212           JUNCTION      0.00   202.62     0  03:08           0        5.41       0.290
  WS02001213           JUNCTION      0.00   204.34     0  03:09           0        5.39       0.336
  WS02003059           JUNCTION      0.00   208.58     0  03:51           0        5.38       0.601
  WS02003060           JUNCTION     16.53   751.74     0  03:00       0.476        9.32       0.166
  WS02003066           JUNCTION      0.00   537.15     0  02:58           0         3.5       0.053
  WS02003067           JUNCTION      0.00   537.08     0  02:58           0        3.51       0.139
  WS02003069           JUNCTION      0.32   751.37     0  02:59     0.00922        9.31       0.175
  WS02003072           JUNCTION      0.00   751.06     0  03:00           0        9.29       0.235
  WS02003073           JUNCTION      1.82   752.75     0  03:00      0.0524        9.32       0.245
  WS02004138           JUNCTION      0.00   380.00     0  00:00           0        5.25       0.053
  WS02004139           JUNCTION      0.32   191.16     0  00:29     0.00924        5.26       0.509
  WS02004401           JUNCTION      0.00   540.44     0  02:56           0        3.62       0.319
  WS02004402           JUNCTION      0.00   540.07     0  02:56           0        3.61       0.320
  WS02004403           JUNCTION      0.00   539.45     0  02:56           0         3.6       0.310
  WS02004404           JUNCTION      0.16   539.29     0  02:56     0.00467         3.6       0.260
  WS02004405           JUNCTION      0.04   539.22     0  02:56      0.0011        3.59       0.374
  WS02004406           JUNCTION      0.00   539.19     0  02:56           0        3.57       0.632
  WS02004407           JUNCTION      0.00   538.68     0  02:56           0        3.55       0.058
  WS02004409           JUNCTION      0.00   538.26     0  02:57           0        3.55       0.126
  WS02004410           JUNCTION      0.00   537.91     0  02:57           0        3.54       0.175
  WS02004411           JUNCTION      0.00   537.69     0  02:57           0        3.54       0.208
  WS02004412           JUNCTION      0.00   537.43     0  02:58           0        3.53       0.263
  WS02004413           JUNCTION      0.00   537.49     0  02:58           0        3.52       0.448
  WS02006109           JUNCTION      1.23   551.89     0  03:18      0.0354        3.68       0.275
  WS02006110           JUNCTION      0.00   553.45     0  03:18           0        3.67       0.212
  WS02006111           JUNCTION      0.00   564.32     0  03:20           0        3.66       0.025
  WS02006112           JUNCTION      0.00   544.35     0  03:20           0        3.66       0.528
  WS02006113           JUNCTION      0.00   560.50     0  03:18           0        3.66       0.071
  WS02006115           JUNCTION      0.00   548.74     0  02:49           0        3.64       0.219
  WS02006116           JUNCTION      0.00   541.35     0  02:55           0        3.63       0.173
  WS02006228           JUNCTION      0.00   549.15     0  03:18           0        3.65       0.119
  WS02006229           JUNCTION      0.00   548.98     0  03:18           0        3.65       0.160
  WS02006230           JUNCTION     10.28   581.16     0  03:17       0.296        3.66       0.160
  WS02006231           JUNCTION      0.00   570.28     0  03:28           0        3.36      -0.082
  WS02006232           JUNCTION      0.00   569.21     0  03:28           0        3.37       0.402
  WS02006234           JUNCTION      0.00   565.14     0  03:28           0        3.37      -0.250
  WS02006235           JUNCTION      0.00   558.43     0  03:17           0        3.46       0.311
  WS02006238           JUNCTION      0.00   424.03     0  03:30           0        2.41      -0.130
  WS02006239           JUNCTION      0.00   423.35     0  03:30           0        2.37      -0.007
  WS02006240           JUNCTION      0.00   420.44     0  03:30           0        2.33      -0.053
  WS02006242           JUNCTION      0.00   420.71     0  03:30           0         2.3      -0.123
  WS02006243           JUNCTION      0.00   420.16     0  03:30           0        2.28      -0.003
  WS02006245           JUNCTION      0.00   419.55     0  03:30           0        2.28       0.444
  WS02006247           JUNCTION      0.00   419.30     0  03:21           0        2.28      -0.004
  WS02006248           JUNCTION      0.00   427.65     0  03:21           0        2.28      -0.070
  WS02006249           JUNCTION      0.00   458.97     0  00:00           0        2.54       0.448
  WS02006251           JUNCTION      0.08   406.85     0  02:07     0.00222        2.54       0.051
  WS02006252           JUNCTION      0.00   400.00     0  00:00           0        2.53      -0.364
  WS02006256           JUNCTION      0.00   367.81     0  01:55           0        1.55      -0.568
  WSF200               JUNCTION      0.00   537.22     0  02:58           0         3.5       0.031
  YS02001580           JUNCTION      0.00    74.73     0  02:15           0     0.00406       2.148
  YS02001583           JUNCTION      0.00   125.82     0  02:15           0      0.0152      -4.534
  YS02001586           JUNCTION    503.98   504.12     0  02:26        1.19         1.2       0.078
  YS02001590           JUNCTION      0.00   318.07     0  02:25           0        1.09      -0.026
  YS02001593           JUNCTION      0.00   318.00     0  02:27           0        1.09      -0.001
  YS02001596           JUNCTION      0.00   318.02     0  02:25           0        1.09      -0.014
  YS02001600           JUNCTION      0.00   318.04     0  02:25           0        1.09       0.012
  YS02001601           JUNCTION    831.10  1149.16     0  02:25         1.6        2.69       0.024
  YS02001602           JUNCTION      0.00   488.25     0  02:15           0        2.01       0.016
  YS02001605           JUNCTION      0.00   488.82     0  02:15           0        1.93       0.025
  YS02001607           JUNCTION      0.00   488.61     0  02:15           0        1.93       0.093
  YS02001610           JUNCTION      0.00   495.03     0  02:14           0        1.94       0.114
  YS02001613           JUNCTION      0.00   498.32     0  02:14           0        1.71       0.089
  YS02001616           JUNCTION      0.00   492.37     0  02:14           0        1.71       0.021
  YS02001619           JUNCTION    867.42   905.62     0  02:18        1.84        3.55      -0.005
  YS02001622           JUNCTION      0.00   907.11     0  02:18           0        3.54      -0.003
  YS02001625           JUNCTION      0.00   995.60     0  02:26           0        3.57       0.259
  YS02001629           JUNCTION      0.00   906.10     0  02:18           0        3.05       0.017
  YS02001633           JUNCTION    643.50  1261.01     0  02:18        1.21        4.24       0.077
  YS02001641           JUNCTION      0.00  1269.33     0  02:18           0        4.21       0.062
  YS02001644           JUNCTION    549.00  1581.32     0  02:19       0.995         5.2       0.060
  YS02001647           JUNCTION      0.00  1582.60     0  02:18           0        5.16       0.005
  YS02001649           JUNCTION      0.00  1764.75     0  02:20           0        6.11       0.002
  YS02001652           JUNCTION      0.00   583.91     0  02:25           0       0.951      -0.110
  YS02001655           JUNCTION      0.15   582.41     0  02:25     0.00443       0.951       0.007
  YS02001658           JUNCTION      0.00   614.97     0  02:21           0       0.946      -0.019
  YS02001661           JUNCTION      0.00   696.81     0  02:25           0       0.946       0.023
  YS02001664           JUNCTION    558.17   558.17     0  02:25       0.946       0.946      -0.009
  YS02001745           JUNCTION    330.06   330.06     0  02:25       0.545       0.545       0.173
  YS02001748           JUNCTION      0.04   402.52     0  02:23      0.0013       0.546      -0.271
  YS02001751           JUNCTION      0.01   340.72     0  02:25    0.000317       0.553       0.113
  YS02001754           JUNCTION      0.26   340.09     0  02:25     0.00749       0.568      -0.192
  YS02001757           JUNCTION      0.00  2935.46     0  02:24           0        8.66       0.007
  YS02001759           JUNCTION    483.05  1152.22     0  02:25       0.796        1.98      -0.020
  YS02001762           JUNCTION      0.00   671.09     0  02:25           0        1.19      -0.006
  YS02001765           JUNCTION      0.00   671.61     0  02:25           0        1.19      -0.025
  YS02001767           JUNCTION      0.54   670.64     0  02:25      0.0154        1.19      -0.002
  YS02001770           JUNCTION    666.42   668.27     0  02:25        1.17        1.22      -0.056
  YS02001774           JUNCTION      0.00   190.12     0  02:19           0      0.0608       1.770
  YS02001779           JUNCTION      0.01   190.73     0  02:19    0.000144      0.0176      -2.374
  YS02001783           JUNCTION      0.00  1152.11     0  02:24           0        3.27       0.005
  YS02001784           JUNCTION      1.06  1152.90     0  02:24      0.0305        3.31       0.013
  YS02001786           JUNCTION      0.06  1152.88     0  02:25     0.00162        3.31       0.020
  YS02001788           JUNCTION      0.07  1152.87     0  02:25     0.00204        3.31       0.009
  YS02001790           JUNCTION      0.15  1166.30     0  02:24     0.00446        3.31       0.024
  YS02001791           JUNCTION      0.00  1284.03     0  02:25           0        3.31      -0.022
  YS02001793           JUNCTION      0.00  1238.32     0  02:23           0        3.31       0.006
  YS02001882           JUNCTION      0.00    30.36     0  02:19           0      0.0124       5.516
  YS02001884           JUNCTION      0.00    49.98     0  02:19           0      0.0479       5.259
  YS02001887           JUNCTION    506.51   508.65     0  02:25       0.827        0.86       0.501
  YS02001890           JUNCTION      0.00   510.42     0  02:25           0        0.82       0.606
  YS02001895           JUNCTION      0.00   500.52     0  02:25           0       0.814       0.182
  YS02001898           JUNCTION      0.00   501.04     0  02:25           0       0.812       0.028
  YS02001901           JUNCTION      0.00   501.69     0  02:25           0       0.815       0.387
  YS02001904           JUNCTION      0.00   500.89     0  02:25           0       0.819       0.330
  YS02001907           JUNCTION      0.00  1440.41     0  02:23           0        2.48       0.714
  YS02001910           JUNCTION      0.00   966.26     0  02:23           0        1.67       0.418
  YS02001915           JUNCTION    553.13   965.72     0  02:23        1.01         1.7       0.092
  YS02001918           JUNCTION      0.00   454.73     0  02:23           0       0.701       0.016
  YS02001920           JUNCTION      2.87   453.96     0  02:23      0.0827       0.688       0.134
  YS02001923           JUNCTION      0.04   415.84     0  02:23     0.00109       0.593       0.003
  YS02001926           JUNCTION      0.05   412.02     0  02:23      0.0015       0.578       0.071
  YS02001929           JUNCTION    289.16   308.21     0  02:23        0.57       0.571      -0.084
  YS02006553           JUNCTION      0.00   793.48     0  02:33           0        2.18       0.543
  YS02006556           JUNCTION      0.00   792.75     0  02:33           0        2.18       0.359
  YS02006558           JUNCTION    662.74  1152.64     0  02:24        1.14         3.3       0.097
  YS02006561           JUNCTION      0.00  1151.95     0  02:25           0        3.27       0.002
  YS02163301           JUNCTION      0.00   902.21     0  02:18           0        3.06       0.045
  YS02163601           JUNCTION      0.11  1259.75     0  02:18     0.00317        4.21       0.113
  YS02164001           JUNCTION      0.00  1259.58     0  02:18           0        4.21       0.050
  CC-1                 OUTFALL       0.00   683.00     0  00:00           0        3.62       0.000
  CC-2                 OUTFALL       0.00   683.00     0  00:00           0        3.28       0.000
  JK-1                 OUTFALL       0.00  1000.00     0  00:00           0        1.72       0.000
  JK-2                 OUTFALL       0.00  1000.00     0  00:00           0      0.0484       0.000
  WSC                  OUTFALL       0.00   752.66     0  03:01           0         9.3       0.000
  CC-storage           STORAGE       0.00  2934.61     0  02:24           0        10.9      -0.209
  JK-storage           STORAGE       0.00  1240.28     0  02:24           0        3.46      -0.001
  XR-storage           STORAGE     200.00   200.00     0  00:00        5.76        6.36       0.001
  
  
  **********************
  Node Surcharge Summary
  **********************
  
  Surcharging occurs when water rises above the top of the highest conduit.
  ---------------------------------------------------------------------
                                               Max. Height   Min. Depth
                                   Hours       Above Crown    Below Rim
  Node                 Type      Surcharged         Meters       Meters
  ---------------------------------------------------------------------
  WS02006109           JUNCTION        1.56          0.239        1.581
  WS02006110           JUNCTION        0.90          0.135        1.715
  WS02006112           JUNCTION        0.87          0.067        1.613
  WS02006228           JUNCTION        1.55          0.252        1.948
  WS02006229           JUNCTION        1.58          0.305        2.145
  WS02006230           JUNCTION        0.91          0.197        1.373
  WS02006231           JUNCTION        0.95          0.272        1.258
  WS02006232           JUNCTION        1.62          0.472        1.008
  WS02006234           JUNCTION        1.11          0.488        0.752
  WS02006235           JUNCTION        1.56          0.588        0.702
  WS02006238           JUNCTION        1.59          0.614        0.816
  WS02006239           JUNCTION        1.50          0.582        0.708
  WS02006240           JUNCTION        1.50          0.571        0.819
  WS02006242           JUNCTION        1.51          0.618        0.202
  WS02006243           JUNCTION        1.50          0.524        0.246
  WS02006245           JUNCTION        1.49          0.486        0.364
  WS02006247           JUNCTION        1.50          0.481        0.279
  WS02006248           JUNCTION        1.49          0.380        0.000
  WS02006249           JUNCTION        1.49          0.390        0.000
  WS02006251           JUNCTION        0.98          0.294        0.886
  WS02006252           JUNCTION        1.63          1.100        0.000
  WS02006256           JUNCTION        4.40          2.050        0.000
  YS02001580           JUNCTION        0.41          0.450        0.000
  YS02001583           JUNCTION        0.42          0.386        0.114
  YS02001586           JUNCTION        0.53          0.510        0.000
  YS02001590           JUNCTION        0.61          0.750        0.000
  YS02001593           JUNCTION        0.61          0.745        0.095
  YS02001596           JUNCTION        0.73          0.953        0.117
  YS02001600           JUNCTION        0.89          1.190        0.000
  YS02001601           JUNCTION        1.26          1.440        0.000
  YS02001602           JUNCTION        1.14          1.270        0.000
  YS02001605           JUNCTION        1.09          1.180        0.000
  YS02001607           JUNCTION        0.59          0.645        0.035
  YS02001610           JUNCTION        0.61          0.680        0.000
  YS02001613           JUNCTION        0.58          0.662        0.038
  YS02001616           JUNCTION        0.54          0.610        0.000
  YS02001619           JUNCTION        0.53          0.604        0.006
  YS02001622           JUNCTION        0.53          0.579        0.041
  YS02001625           JUNCTION        0.70          0.780        0.000
  YS02001629           JUNCTION        0.48          0.470        0.000
  YS02001633           JUNCTION        0.73          1.060        0.000
  YS02001641           JUNCTION        0.66          1.078        0.022
  YS02001644           JUNCTION        0.63          0.920        0.000
  YS02001647           JUNCTION        0.44          0.715        0.185
  YS02001649           JUNCTION        0.55          0.892        0.158
  YS02001652           JUNCTION        0.38          0.683        0.447
  YS02001655           JUNCTION        0.25          0.607        0.593
  YS02001658           JUNCTION        0.11          0.482        0.818
  YS02001748           JUNCTION        0.04          0.158        1.032
  YS02001751           JUNCTION        0.17          0.418        0.782
  YS02001754           JUNCTION        0.31          0.610        0.540
  YS02001757           JUNCTION        0.61          0.943        0.267
  YS02001759           JUNCTION        0.52          0.891        0.319
  YS02001762           JUNCTION        0.49          0.892        0.258
  YS02001765           JUNCTION        0.45          0.932        0.168
  YS02001767           JUNCTION        0.42          0.978        0.052
  YS02001770           JUNCTION        0.40          0.920        0.000
  YS02001774           JUNCTION        0.47          0.973        0.077
  YS02001779           JUNCTION        0.31          0.680        0.000
  YS02001783           JUNCTION        0.35          0.469        1.131
  YS02001784           JUNCTION        0.32          0.344        1.146
  YS02001786           JUNCTION        0.22          0.095        1.335
  YS02001882           JUNCTION        0.29          0.650        0.180
  YS02001884           JUNCTION        0.30          0.681        0.189
  YS02001887           JUNCTION        0.34          0.773        0.177
  YS02001890           JUNCTION        0.35          0.760        0.000
  YS02001895           JUNCTION        0.28          0.568        0.182
  YS02001898           JUNCTION        0.28          0.539        0.201
  YS02001901           JUNCTION        0.32          0.677        0.193
  YS02001904           JUNCTION        0.31          0.638        0.212
  YS02001907           JUNCTION        0.58          0.950        0.000
  YS02001910           JUNCTION        0.37          0.988        0.112
  YS02001915           JUNCTION        0.29          0.941        0.059
  YS02001918           JUNCTION        0.21          0.810        0.000
  YS02001920           JUNCTION        0.22          1.078        0.062
  YS02001923           JUNCTION        0.01          0.765        0.055
  YS02001926           JUNCTION        0.01          0.878        0.022
  YS02001929           JUNCTION        0.01          0.780        0.000
  YS02006553           JUNCTION        0.60          0.971        0.219
  YS02006556           JUNCTION        0.47          0.906        0.444
  YS02006558           JUNCTION        0.45          0.885        0.515
  YS02006561           JUNCTION        0.18          0.152        0.998
  YS02163301           JUNCTION        0.71          0.971        0.059
  YS02163601           JUNCTION        0.76          1.080        0.000
  YS02164001           JUNCTION        0.67          1.100        0.000
  
  
  *********************
  Node Flooding Summary
  *********************
  
  Flooding refers to all water that overflows a node, whether it ponds or not.
  --------------------------------------------------------------------------
                                                             Total   Maximum
                                 Maximum   Time of Max       Flood    Ponded
                        Hours       Rate    Occurrence      Volume     Depth
  Node                 Flooded       LPS   days hr:min    10^6 ltr    Meters
  --------------------------------------------------------------------------
  WS02006248              0.01      1.30      0  02:08       0.000     0.000
  WS02006249              0.97    104.78      0  02:07       0.242     0.000
  WS02006252              0.01    245.63      0  00:00       0.000     0.000
  WS02006256              1.43    350.11      0  01:55       0.458     0.000
  YS02001580              0.01     38.82      0  02:16       0.000     0.000
  YS02001586              0.29    186.30      0  02:26       0.101     0.000
  YS02001590              0.01      8.29      0  02:16       0.000     0.000
  YS02001600              0.01      2.67      0  02:16       0.000     0.000
  YS02001601              0.47    751.29      0  02:25       0.684     0.000
  YS02001602              0.36     62.10      0  02:27       0.074     0.000
  YS02001605              0.01      0.08      0  02:21       0.000     0.000
  YS02001610              0.31    358.70      0  02:27       0.230     0.000
  YS02001616              0.01      0.78      0  02:21       0.000     0.000
  YS02001625              0.29    995.35      0  02:26       0.535     0.000
  YS02001629              0.04     21.17      0  02:21       0.001     0.000
  YS02001633              0.01      1.42      0  02:21       0.000     0.000
  YS02001644              0.07    210.18      0  02:25       0.029     0.000
  YS02001770              0.01      8.86      0  02:21       0.000     0.000
  YS02001779              0.01     31.86      0  02:19       0.000     0.000
  YS02001890              0.04     25.12      0  02:22       0.001     0.000
  YS02001907              0.16    914.16      0  02:23       0.294     0.000
  YS02001918              0.01     88.88      0  02:23       0.000     0.000
  YS02001929              0.01    202.80      0  02:23       0.000     0.000
  YS02163601              0.01      3.46      0  02:21       0.000     0.000
  YS02164001              0.01      3.62      0  02:21       0.000     0.000
  
  
  **********************
  Storage Volume Summary
  **********************
  
  ------------------------------------------------------------------------------------------------
                         Average    Avg   Evap  Exfil     Maximum    Max    Time of Max    Maximum
                          Volume   Pcnt   Pcnt   Pcnt      Volume   Pcnt     Occurrence    Outflow
  Storage Unit           1000 m³   Full   Loss   Loss     1000 m³   Full    days hr:min        LPS
  ------------------------------------------------------------------------------------------------
  CC-storage               2.343   36.6    0.0    0.0       4.575   71.4       0  02:41    1783.53
  JK-storage               0.159   54.6    0.0    0.0       0.212   72.8       0  02:30    2300.00
  XR-storage               0.940   65.3    0.0    0.0       1.111   77.2       0  08:00     380.00
  
  
  ***********************
  Outfall Loading Summary
  ***********************
  
  -----------------------------------------------------------
                         Flow       Avg       Max       Total
                         Freq      Flow      Flow      Volume
  Outfall Node           Pcnt       LPS       LPS    10^6 ltr
  -----------------------------------------------------------
  CC-1                  29.21    683.00    683.00       3.623
  CC-2                  26.22    683.00    683.00       3.278
  JK-1                  12.06   1000.00   1000.00       1.718
  JK-2                   0.24   1000.00   1000.00       0.048
  WSC                   99.93    384.98    752.66       9.301
  -----------------------------------------------------------
  System                33.53   3750.98   3366.23      17.968
  
  
  ********************
  Link Flow Summary
  ********************
  
  -----------------------------------------------------------------------------
                                 Maximum  Time of Max   Maximum    Max/    Max/
                                  |Flow|   Occurrence   |Veloc|    Full    Full
  Link                 Type          LPS  days hr:min     m/sec    Flow   Depth
  -----------------------------------------------------------------------------
  1                    CONDUIT    752.66     0  03:01      3.08    0.26    0.35
  WS02001211WS02001212 CONDUIT    202.62     0  03:08      0.54    0.15    0.51
  WS02001212WS02001213 CONDUIT    204.34     0  03:09      1.04    0.32    0.36
  WS02001213WS02003059 CONDUIT    208.58     0  03:51      0.47    0.34    0.67
  WS02003059WS02003060 CONDUIT    214.96     0  03:49      0.67    0.14    0.59
  WS02003060WS02003069 CONDUIT    751.05     0  02:59      1.77    0.29    0.40
  WS02003066WSF200     CONDUIT    537.22     0  02:58      2.74    0.09    0.23
  WS02003067WS02003066 CONDUIT    537.15     0  02:58      1.21    0.17    0.42
  WS02003069WS02003072 CONDUIT    751.06     0  03:00      1.51    0.36    0.45
  WS02003072WS02003073 CONDUIT    750.93     0  03:00      1.60    1.62    0.43
  WS02004138WS02004139 CONDUIT    190.84     0  00:29      2.17    0.04    0.33
  WS02004139WS02001211 CONDUIT    193.09     0  03:08      0.54    0.24    0.47
  WS02004401WS02004402 CONDUIT    540.07     0  02:56      0.97    0.65    0.86
  WS02004402WS02004403 CONDUIT    539.45     0  02:56      0.97    0.78    0.88
  WS02004403WS02004404 CONDUIT    539.13     0  02:56      0.92    0.39    0.93
  WS02004404WS02004405 CONDUIT    539.18     0  02:56      1.08    5.28    0.96
  WS02004405WS02004406 CONDUIT    539.19     0  02:56      0.99    1.06    0.96
  WS02004406WS02004407 CONDUIT    538.68     0  02:56      1.04    0.24    0.63
  WS02004407WS02004409 CONDUIT    538.26     0  02:57      1.51    0.19    0.48
  WS02004409WS02004410 CONDUIT    537.91     0  02:57      0.98    0.70    0.67
  WS02004410WS02004411 CONDUIT    537.69     0  02:57      0.94    0.73    0.69
  WS02004411WS02004412 CONDUIT    537.43     0  02:58      0.92    0.76    0.69
  WS02004412WS02004413 CONDUIT    537.49     0  02:58      0.82    0.36    0.78
  WS02004413WS02003067 CONDUIT    537.08     0  02:58      1.11    0.23    0.59
  WS02006109WS02006110 CONDUIT    553.45     0  03:18      1.10    1.06    1.00
  WS02006110WS02006113 CONDUIT    560.50     0  03:18      1.35    0.51    0.79
  WS02006111WS02006112 CONDUIT    544.35     0  03:20      1.82    0.26    0.67
  WS02006112WS02006115 CONDUIT    548.74     0  02:49      0.78    0.32    0.87
  WS02006113WS02006111 CONDUIT    564.32     0  03:20      2.47    0.68    0.46
  WS02006115WS02006116 CONDUIT    541.35     0  02:55      0.97    0.69    0.76
  WS02006116WS02004401 CONDUIT    540.44     0  02:56      0.98    0.74    0.84
  WS02006228WS02006109 CONDUIT    550.66     0  03:18      1.10    2.41    1.00
  WS02006229WS02006228 CONDUIT    549.15     0  03:18      1.15    1.82    1.00
  WS02006230WS02006229 CONDUIT    548.98     0  03:18      1.43   12.22    1.00
  WS02006231WS02006230 CONDUIT    570.88     0  03:17      1.55    8.66    1.00
  WS02006232WS02006231 CONDUIT    570.28     0  03:28      1.48    1.19    1.00
  WS02006234WS02006232 CONDUIT    569.21     0  03:28      1.48    1.15    1.00
  WS02006235WS02006234 CONDUIT    565.14     0  03:28      1.47    5.96    1.00
  WS02006238WS02006235 CONDUIT    426.36     0  03:30      1.56    0.95    1.00
  WS02006239WS02006238 CONDUIT    424.03     0  03:30      1.11    1.36    1.00
  WS02006240WS02006239 CONDUIT    423.35     0  03:30      1.24    1.33    1.00
  WS02006242WS02006240 CONDUIT    420.44     0  03:30      1.12    1.67    1.00
  WS02006243WS02006242 CONDUIT    420.71     0  03:30      1.39    0.90    1.00
  WS02006245WS02006243 CONDUIT    420.16     0  03:30      1.45    1.24    1.00
  WS02006247WS02006245 CONDUIT    419.55     0  03:30      1.44    3.33    1.00
  WS02006248WS02006247 CONDUIT    419.30     0  03:21      1.45    0.91    1.00
  WS02006249WS02006248 CONDUIT    427.65     0  03:21      1.37    2.34    1.00
  WS02006251WS02006249 CONDUIT    458.97     0  00:00      1.99    1.32    1.00
  WS02006252WS02006251 CONDUIT    406.77     0  02:07     25.35    1.49    1.00
  WS02006256WS02006235 CONDUIT    289.22     0  01:52      4.23    3.06    1.00
  WSF200WS02003060     CONDUIT    537.60     0  02:59      1.76    0.12    0.32
  YS02001580YS02001583 CONDUIT     74.73     0  02:15      0.52    0.29    1.00
  YS02001583YS02001586 CONDUIT    125.82     0  02:15      0.51    0.19    1.00
  YS02001586YS02001590 CONDUIT    318.07     0  02:25      1.26    0.56    1.00
  YS02001590YS02001593 CONDUIT    318.00     0  02:27      1.12    2.00    1.00
  YS02001593YS02001596 CONDUIT    318.02     0  02:25      1.74    0.50    1.00
  YS02001596YS02001600 CONDUIT    318.04     0  02:25      1.24    0.62    1.00
  YS02001600YS02001601 CONDUIT    318.14     0  02:25      1.13    0.55    1.00
  YS02001601YS02001602 CONDUIT    488.25     0  02:15      1.73    1.76    1.00
  YS02001602YS02001605 CONDUIT    488.82     0  02:15      1.73   10.34    1.00
  YS02001605YS02001607 CONDUIT    488.61     0  02:15      1.73    2.68    1.00
  YS02001607YS02001610 CONDUIT    495.03     0  02:14      0.63    0.47    1.00
  YS02001610YS02001613 CONDUIT    498.32     0  02:14      0.63    0.57    1.00
  YS02001613YS02001616 CONDUIT    492.37     0  02:14      0.63    0.42    1.00
  YS02001616YS02001619 CONDUIT    487.55     0  02:15      0.65    0.85    1.00
  YS02001619YS02001622 CONDUIT    907.11     0  02:18      1.16    1.34    1.00
  YS02001622YS02001625 CONDUIT    907.28     0  02:18      1.16    0.48    1.00
  YS02001625YS02001629 CONDUIT    906.10     0  02:18      1.15    0.43    1.00
  YS02001629YS02163301 CONDUIT    902.21     0  02:18      1.15    1.11    1.00
  YS02001633YS02163601 CONDUIT   1259.64     0  02:18      1.60    1.32    1.00
  YS02001641YS02001644 CONDUIT   1276.49     0  02:18      1.63    4.13    1.00
  YS02001644YS02001647 CONDUIT   1582.60     0  02:18      2.07    0.93    1.00
  YS02001647YS02001649 CONDUIT   1582.39     0  02:19      2.17    0.84    1.00
  YS02001649YS02001757 CONDUIT   1766.27     0  02:20      2.25    1.07    1.00
  YS02001652YS02001649 CONDUIT    586.48     0  02:25      0.79    0.29    1.00
  YS02001655YS02001652 CONDUIT    583.91     0  02:25      1.23    0.28    1.00
  YS02001658YS02001655 CONDUIT    582.26     0  02:25      1.80    0.25    1.00
  YS02001661YS02001658 CONDUIT    614.97     0  02:21      2.13    0.24    0.95
  YS02001664YS02001661 CONDUIT    696.81     0  02:25      2.04    0.22    0.64
  YS02001745YS02001748 CONDUIT    402.48     0  02:23      1.93    0.15    0.84
  YS02001748YS02001751 CONDUIT    340.71     0  02:25      1.53    0.17    1.00
  YS02001751YS02001754 CONDUIT    339.83     0  02:25      1.36    0.16    1.00
  YS02001754YS02001757 CONDUIT    339.92     0  02:25      0.49    0.14    1.00
  YS02001757CaochengTiaoxuchi CONDUIT   2934.61     0  02:24      3.74    1.27    1.00
  YS02001759YS02001757 CONDUIT   1152.34     0  02:25      1.47    0.82    1.00
  YS02001762YS02001759 CONDUIT    670.39     0  02:25      0.85    0.77    1.00
  YS02001765YS02001762 CONDUIT    671.09     0  02:25      0.85    0.63    1.00
  YS02001767YS02001765 CONDUIT    671.61     0  02:25      0.86    0.84    1.00
  YS02001770YS02001767 CONDUIT    670.10     0  02:25      0.85    2.65    1.00
  YS02001774YS02001770 CONDUIT    190.12     0  02:19      0.24    0.12    1.00
  YS02001779YS02001774 CONDUIT    190.73     0  02:19      0.24    0.10    1.00
  YS02001783YS02001784 CONDUIT   1151.84     0  02:24      2.29    1.59    1.00
  YS02001784YS02001785 CONDUIT   1152.82     0  02:25      2.29    2.68    1.00
  YS02001786YS02001788 CONDUIT   1152.80     0  02:25      2.46    2.22    0.89
  YS02001788YS02001790 CONDUIT   1166.15     0  02:24      2.69    0.86    0.84
  YS02001790YS02001791 CONDUIT   1284.03     0  02:25      3.43    1.40    0.70
  YS02001791YS02001793 CONDUIT   1238.32     0  02:23      6.58    0.53    0.44
  YS02001793JiankangQianchi CONDUIT   1240.28     0  02:24      2.46    0.10    0.64
  YS02001882YS02001884 CONDUIT     30.36     0  02:19      0.12    0.03    1.00
  YS02001884YS02001887 CONDUIT     49.98     0  02:19      0.09    0.07    1.00
  YS02001887YS02001890 CONDUIT    510.42     0  02:25      0.65    0.87    1.00
  YS02001890YS02001895 CONDUIT    500.52     0  02:25      0.64    0.23    1.00
  YS02001895YS02001898 CONDUIT    501.04     0  02:25      0.64    0.87    1.00
  YS02001898YS02001901 CONDUIT    501.69     0  02:25      0.64    0.32    1.00
  YS02001901YS02001904 CONDUIT    500.89     0  02:25      0.64    0.78    1.00
  YS02001904YS02001907 CONDUIT    501.24     0  02:25      0.64    0.18    1.00
  YS02001907YS02006553 CONDUIT    793.48     0  02:33      0.88    0.93    1.00
  YS02001910YS02001907 CONDUIT    965.91     0  02:23      1.23    0.54    1.00
  YS02001915YS02001910 CONDUIT    966.26     0  02:23      1.23    0.48    1.00
  YS02001918YS02001915 CONDUIT    456.31     0  02:23      0.58    0.25    1.00
  YS02001920YS02001918 CONDUIT    454.73     0  02:23      0.65    0.44    1.00
  YS02001923YS02001920 CONDUIT    451.09     0  02:23      0.71    0.20    1.00
  YS02001926YS02001923 CONDUIT    415.80     0  02:23      0.96    0.59    1.00
  YS02001929YS02001926 CONDUIT    411.96     0  02:23      1.11    0.20    1.00
  YS02006553YS02006556 CONDUIT    792.75     0  02:33      1.01    0.68    1.00
  YS02006556YS02006558 CONDUIT    794.84     0  02:33      1.01    0.63    1.00
  YS02006558YS02006561 CONDUIT   1151.95     0  02:25      4.07    2.55    1.00
  YS02006561YS02001783 CONDUIT   1152.11     0  02:24      2.29    0.60    1.00
  YS02163301YS02001633 CONDUIT    903.46     0  02:18      1.15    0.85    1.00
  YS02163601YS02164001 CONDUIT   1259.58     0  02:18      1.60    1.12    1.00
  YS02164001YS02001641 CONDUIT   1269.33     0  02:18      1.62    1.73    1.00
  CC-R1                PUMP       683.00     0  00:00              1.00
  CC-R2                PUMP       683.00     0  00:00              1.00
  CC-S1                PUMP       200.00     0  00:00              1.00
  CC-S2                PUMP       200.00     0  00:00              1.00
  JK-R1                PUMP      1000.00     0  00:00              1.00
  JK-R2                PUMP      1000.00     0  00:00              1.00
  JK-S                 PUMP       300.00     0  00:00              1.00
  XR-1                 PUMP        95.00     0  00:00              1.00
  XR-2                 PUMP        95.00     0  00:00              1.00
  XR-3                 PUMP        95.00     0  00:00              1.00
  XR-4                 PUMP        95.00     0  00:00              1.00
  
  
  ***************************
  Flow Classification Summary
  ***************************
  
  -------------------------------------------------------------------------------------
                      Adjusted    ---------- Fraction of Time in Flow Class ---------- 
                       /Actual         Up    Down  Sub   Sup   Up    Down  Norm  Inlet 
  Conduit               Length    Dry  Dry   Dry   Crit  Crit  Crit  Crit  Ltd   Ctrl  
  -------------------------------------------------------------------------------------
  1                       1.00   0.00  0.00  0.00  0.00  1.00  0.00  0.00  0.18  0.00
  WS02001211WS02001212    1.00   0.00  0.02  0.00  0.98  0.00  0.00  0.00  0.00  0.00
  WS02001212WS02001213    1.00   0.02  0.00  0.00  0.21  0.00  0.76  0.00  0.00  0.00
  WS02001213WS02003059    1.00   0.00  0.01  0.00  0.99  0.00  0.00  0.00  0.00  0.00
  WS02003059WS02003060    1.00   0.00  0.00  0.00  1.00  0.00  0.00  0.00  0.03  0.00
  WS02003060WS02003069    1.00   0.00  0.00  0.00  0.98  0.02  0.00  0.00  0.66  0.00
  WS02003066WSF200        1.00   0.13  0.00  0.00  0.00  0.87  0.00  0.00  0.73  0.00
  WS02003067WS02003066    1.00   0.10  0.02  0.00  0.88  0.00  0.00  0.00  0.00  0.00
  WS02003069WS02003072    1.00   0.00  0.00  0.00  1.00  0.00  0.00  0.00  0.76  0.00
  WS02003072WS02003073    1.00   0.00  0.00  0.00  0.00  0.00  0.00  1.00  0.00  0.00
  WS02004138WS02004139    1.00   0.00  0.00  0.00  0.97  0.01  0.00  0.02  0.98  0.00
  WS02004139WS02001211    1.00   0.00  0.00  0.00  0.99  0.00  0.00  0.00  0.00  0.00
  WS02004401WS02004402    1.00   0.02  0.00  0.00  0.98  0.00  0.00  0.00  0.00  0.00
  WS02004402WS02004403    1.00   0.02  0.00  0.00  0.97  0.00  0.00  0.00  0.00  0.00
  WS02004403WS02004404    1.00   0.00  0.03  0.00  0.97  0.00  0.00  0.00  0.00  0.00
  WS02004404WS02004405    1.00   0.00  0.00  0.00  1.00  0.00  0.00  0.00  0.01  0.00
  WS02004405WS02004406    1.00   0.00  0.00  0.00  1.00  0.00  0.00  0.00  0.00  0.00
  WS02004406WS02004407    1.00   0.00  0.05  0.00  0.95  0.00  0.00  0.00  0.00  0.00
  WS02004407WS02004409    1.00   0.05  0.00  0.00  0.94  0.01  0.00  0.00  0.94  0.00
  WS02004409WS02004410    1.00   0.05  0.00  0.00  0.95  0.00  0.00  0.00  0.03  0.00
  WS02004410WS02004411    1.00   0.05  0.00  0.00  0.95  0.00  0.00  0.00  0.01  0.00
  WS02004411WS02004412    1.00   0.05  0.00  0.00  0.95  0.00  0.00  0.00  0.00  0.00
  WS02004412WS02004413    1.00   0.05  0.00  0.00  0.94  0.00  0.00  0.00  0.01  0.00
  WS02004413WS02003067    1.00   0.06  0.04  0.00  0.00  0.00  0.90  0.00  0.00  0.00
  WS02006109WS02006110    1.00   0.00  0.01  0.00  0.98  0.00  0.01  0.00  0.00  0.00
  WS02006110WS02006113    1.00   0.01  0.01  0.00  0.98  0.00  0.00  0.00  0.00  0.00
  WS02006111WS02006112    1.00   0.02  0.00  0.00  0.98  0.00  0.00  0.00  0.98  0.00
  WS02006112WS02006115    1.00   0.02  0.00  0.00  0.97  0.00  0.00  0.00  0.00  0.00
  WS02006113WS02006111    1.00   0.02  0.00  0.00  0.00  0.98  0.00  0.00  0.10  0.00
  WS02006115WS02006116    1.00   0.02  0.00  0.00  0.97  0.00  0.00  0.01  0.00  0.00
  WS02006116WS02004401    1.00   0.02  0.00  0.00  0.98  0.00  0.00  0.00  0.00  0.00
  WS02006228WS02006109    1.00   0.00  0.00  0.00  1.00  0.00  0.00  0.00  0.00  0.00
  WS02006229WS02006228    1.00   0.00  0.00  0.00  0.99  0.00  0.00  0.01  0.00  0.00
  WS02006230WS02006229    1.00   0.00  0.00  0.00  0.99  0.00  0.00  0.01  0.02  0.00
  WS02006231WS02006230    1.00   0.00  0.00  0.00  0.21  0.00  0.79  0.00  0.00  0.00
  WS02006232WS02006231    1.00   0.00  0.00  0.00  0.98  0.00  0.01  0.00  0.00  0.00
  WS02006234WS02006232    1.00   0.00  0.00  0.00  1.00  0.00  0.00  0.00  0.31  0.00
  WS02006235WS02006234    1.00   0.00  0.00  0.00  0.63  0.00  0.37  0.00  0.00  0.00
  WS02006238WS02006235    1.00   0.00  0.00  0.00  1.00  0.00  0.00  0.00  0.00  0.00
  WS02006239WS02006238    1.00   0.00  0.00  0.00  1.00  0.00  0.00  0.00  0.45  0.00
  WS02006240WS02006239    1.00   0.00  0.00  0.00  0.43  0.00  0.00  0.57  0.02  0.00
  WS02006242WS02006240    1.00   0.00  0.00  0.00  0.99  0.00  0.00  0.00  0.00  0.00
  WS02006243WS02006242    1.00   0.00  0.00  0.00  0.99  0.00  0.00  0.01  0.71  0.00
  WS02006245WS02006243    1.00   0.00  0.00  0.00  0.49  0.00  0.00  0.50  0.02  0.00
  WS02006247WS02006245    1.00   0.00  0.00  0.00  0.98  0.00  0.00  0.02  0.00  0.00
  WS02006248WS02006247    1.00   0.00  0.00  0.00  0.99  0.00  0.00  0.01  0.27  0.00
  WS02006249WS02006248    1.00   0.00  0.00  0.00  0.31  0.00  0.69  0.00  0.00  0.00
  WS02006251WS02006249    1.00   0.00  0.00  0.00  0.99  0.01  0.00  0.00  0.72  0.00
  WS02006252WS02006251    1.00   0.00  0.75  0.00  0.12  0.00  0.12  0.00  0.01  0.00
  WS02006256WS02006235    1.00   0.00  0.00  0.00  0.99  0.01  0.00  0.00  0.00  0.00
  WSF200WS02003060        1.00   0.00  0.13  0.00  0.68  0.20  0.00  0.00  0.66  0.00
  YS02001580YS02001583    1.00   0.28  0.55  0.00  0.17  0.00  0.00  0.00  0.64  0.00
  YS02001583YS02001586    1.00   0.48  0.30  0.00  0.22  0.00  0.00  0.00  0.65  0.00
  YS02001586YS02001590    1.00   0.13  0.00  0.00  0.41  0.04  0.00  0.43  0.36  0.00
  YS02001590YS02001593    1.00   0.13  0.01  0.00  0.09  0.00  0.78  0.00  0.00  0.00
  YS02001593YS02001596    1.00   0.13  0.00  0.00  0.11  0.01  0.00  0.75  0.02  0.00
  YS02001596YS02001600    1.00   0.14  0.00  0.00  0.18  0.02  0.00  0.67  0.05  0.00
  YS02001600YS02001601    1.00   0.13  0.01  0.00  0.86  0.00  0.00  0.00  0.62  0.00
  YS02001601YS02001602    1.00   0.13  0.01  0.00  0.87  0.00  0.00  0.00  0.00  0.00
  YS02001602YS02001605    1.00   0.13  0.00  0.00  0.86  0.00  0.00  0.00  0.00  0.00
  YS02001605YS02001607    1.00   0.14  0.00  0.00  0.86  0.00  0.00  0.00  0.00  0.00
  YS02001607YS02001610    1.00   0.13  0.01  0.00  0.86  0.00  0.00  0.00  0.01  0.00
  YS02001610YS02001613    1.00   0.13  0.00  0.00  0.87  0.00  0.00  0.00  0.00  0.00
  YS02001613YS02001616    1.00   0.13  0.00  0.00  0.87  0.00  0.00  0.00  0.00  0.00
  YS02001616YS02001619    1.00   0.13  0.00  0.00  0.87  0.00  0.00  0.00  0.00  0.00
  YS02001619YS02001622    1.00   0.13  0.00  0.00  0.87  0.00  0.00  0.00  0.34  0.00
  YS02001622YS02001625    1.00   0.13  0.00  0.00  0.87  0.00  0.00  0.00  0.04  0.00
  YS02001625YS02001629    1.00   0.13  0.05  0.00  0.14  0.00  0.68  0.00  0.00  0.00
  YS02001629YS02163301    1.00   0.15  0.01  0.00  0.84  0.00  0.00  0.00  0.00  0.00
  YS02001633YS02163601    1.00   0.00  0.01  0.00  0.99  0.00  0.00  0.00  0.15  0.00
  YS02001641YS02001644    1.00   0.00  0.01  0.00  0.99  0.00  0.00  0.00  0.00  0.00
  YS02001644YS02001647    1.00   0.00  0.17  0.00  0.83  0.00  0.00  0.00  0.00  0.00
  YS02001647YS02001649    1.00   0.00  0.17  0.00  0.54  0.29  0.00  0.00  0.58  0.00
  YS02001649YS02001757    1.00   0.00  0.00  0.00  0.69  0.31  0.00  0.00  0.51  0.00
  YS02001652YS02001649    1.00   0.00  0.00  0.00  0.97  0.03  0.00  0.00  0.76  0.00
  YS02001655YS02001652    1.00   0.00  0.00  0.00  0.16  0.02  0.00  0.83  0.05  0.00
  YS02001658YS02001655    1.00   0.00  0.14  0.00  0.65  0.21  0.00  0.00  0.72  0.00
  YS02001661YS02001658    1.00   0.14  0.00  0.00  0.51  0.35  0.00  0.00  0.73  0.00
  YS02001664YS02001661    1.00   0.13  0.00  0.00  0.77  0.10  0.00  0.00  0.87  0.00
  YS02001745YS02001748    1.00   0.00  0.00  0.00  0.07  0.00  0.00  0.92  0.04  0.00
  YS02001748YS02001751    1.00   0.00  0.00  0.00  0.81  0.19  0.00  0.00  0.76  0.00
  YS02001751YS02001754    1.00   0.00  0.00  0.00  0.13  0.00  0.00  0.87  0.03  0.00
  YS02001754YS02001757    1.00   0.00  0.00  0.00  1.00  0.00  0.00  0.00  0.85  0.00
  YS02001757CaochengTiaoxuchi    1.00   0.00  0.00  0.00  1.00  0.00  0.00  0.00  0.85  0.00
  YS02001759YS02001757    1.00   0.00  0.00  0.00  1.00  0.00  0.00  0.00  0.62  0.00
  YS02001762YS02001759    1.00   0.00  0.00  0.00  1.00  0.00  0.00  0.00  0.04  0.00
  YS02001765YS02001762    1.00   0.00  0.00  0.00  1.00  0.00  0.00  0.00  0.73  0.00
  YS02001767YS02001765    1.00   0.00  0.00  0.00  1.00  0.00  0.00  0.00  0.00  0.00
  YS02001770YS02001767    1.00   0.00  0.00  0.00  1.00  0.00  0.00  0.00  0.00  0.00
  YS02001774YS02001770    1.00   0.00  0.13  0.00  0.61  0.00  0.26  0.00  0.03  0.00
  YS02001779YS02001774    1.00   0.00  0.00  0.00  1.00  0.00  0.00  0.00  0.78  0.00
  YS02001783YS02001784    1.00   0.00  0.18  0.00  0.82  0.00  0.00  0.00  0.57  0.00
  YS02001784YS02001785    1.00   0.00  0.00  0.00  1.00  0.00  0.00  0.00  0.17  0.00
  YS02001786YS02001788    1.00   0.00  0.00  0.00  0.79  0.21  0.00  0.00  0.00  0.00
  YS02001788YS02001790    1.00   0.00  0.00  0.00  0.21  0.79  0.00  0.00  0.81  0.00
  YS02001790YS02001791    1.00   0.00  0.00  0.00  0.01  0.99  0.00  0.00  0.17  0.00
  YS02001791YS02001793    1.00   0.00  0.00  0.00  0.00  1.00  0.00  0.00  0.01  0.00
  YS02001793JiankangQianchi    1.00   0.00  0.00  0.00  0.99  0.00  0.00  0.00  0.96  0.00
  YS02001882YS02001884    1.00   0.15  0.01  0.00  0.84  0.00  0.00  0.00  0.00  0.00
  YS02001884YS02001887    1.00   0.06  0.05  0.00  0.89  0.00  0.00  0.00  0.00  0.00
  YS02001887YS02001890    1.00   0.00  0.00  0.00  0.97  0.00  0.03  0.00  0.00  0.00
  YS02001890YS02001895    1.00   0.00  0.16  0.00  0.84  0.00  0.00  0.00  0.00  0.00
  YS02001895YS02001898    1.00   0.16  0.00  0.00  0.82  0.00  0.02  0.00  0.00  0.00
  YS02001898YS02001901    1.00   0.17  0.00  0.00  0.83  0.00  0.00  0.00  0.01  0.00
  YS02001901YS02001904    1.00   0.17  0.00  0.00  0.83  0.00  0.00  0.00  0.00  0.00
  YS02001904YS02001907    1.00   0.00  0.16  0.00  0.84  0.00  0.00  0.00  0.00  0.00
  YS02001907YS02006553    1.00   0.00  0.02  0.00  0.98  0.00  0.00  0.00  0.00  0.00
  YS02001910YS02001907    1.00   0.00  0.00  0.00  0.97  0.00  0.00  0.03  0.12  0.00
  YS02001915YS02001910    1.00   0.00  0.00  0.00  0.97  0.03  0.00  0.00  0.16  0.00
  YS02001918YS02001915    1.00   0.00  0.01  0.00  0.98  0.02  0.00  0.00  0.77  0.00
  YS02001920YS02001918    1.00   0.00  0.01  0.00  0.99  0.00  0.00  0.00  0.00  0.00
  YS02001923YS02001920    1.00   0.00  0.00  0.00  1.00  0.00  0.00  0.00  0.95  0.00
  YS02001926YS02001923    1.00   0.00  0.07  0.00  0.04  0.00  0.89  0.00  0.00  0.00
  YS02001929YS02001926    1.00   0.00  0.13  0.00  0.87  0.00  0.00  0.00  0.84  0.00
  YS02006553YS02006556    1.00   0.01  0.00  0.00  0.99  0.00  0.00  0.00  0.03  0.00
  YS02006556YS02006558    1.00   0.00  0.00  0.00  1.00  0.00  0.00  0.00  0.00  0.00
  YS02006558YS02006561    1.00   0.18  0.00  0.00  0.03  0.79  0.00  0.00  0.18  0.00
  YS02006561YS02001783    1.00   0.18  0.00  0.00  0.07  0.75  0.00  0.00  0.71  0.00
  YS02163301YS02001633    1.00   0.00  0.15  0.00  0.85  0.00  0.00  0.00  0.00  0.00
  YS02163601YS02164001    1.00   0.00  0.08  0.00  0.92  0.00  0.00  0.00  0.00  0.00
  YS02164001YS02001641    1.00   0.01  0.07  0.00  0.92  0.00  0.00  0.00  0.05  0.00
  
  
  *************************
  Conduit Surcharge Summary
  *************************
  
  ----------------------------------------------------------------------------
                                                           Hours        Hours 
                         --------- Hours Full --------   Above Full   Capacity
  Conduit                Both Ends  Upstream  Dnstream   Normal Flow   Limited
  ----------------------------------------------------------------------------
  WS02003072WS02003073        0.01      0.01      0.01      1.70         0.01
  WS02004404WS02004405        0.01      0.01      0.01      2.12         0.01
  WS02004405WS02004406        0.01      0.01      0.01      0.84         0.01
  WS02006109WS02006110        0.90      0.90      1.61      0.94         0.01
  WS02006110WS02006113        0.01      0.01      1.58      0.01         0.01
  WS02006111WS02006112        0.01      0.01      1.66      0.01         0.01
  WS02006112WS02006115        0.01      0.01      0.87      0.01         0.01
  WS02006228WS02006109        1.56      1.61      1.56      1.76         1.56
  WS02006229WS02006228        1.55      1.58      1.55      1.71         1.54
  WS02006230WS02006229        1.65      1.69      1.65      2.70         1.65
  WS02006231WS02006230        0.91      0.91      0.97      2.35         0.01
  WS02006232WS02006231        0.95      0.95      1.62      0.98         0.01
  WS02006234WS02006232        1.52      1.52      1.62      0.97         0.97
  WS02006235WS02006234        1.11      1.11      1.56      2.19         0.01
  WS02006238WS02006235        1.58      1.58      1.62      0.01         0.01
  WS02006239WS02006238        1.56      1.56      1.59      1.53         1.35
  WS02006240WS02006239        1.50      1.50      1.50      1.53         1.26
  WS02006242WS02006240        1.50      1.50      1.53      1.57         0.01
  WS02006243WS02006242        1.50      1.50      1.51      0.01         0.02
  WS02006245WS02006243        1.49      1.49      1.50      0.61         0.76
  WS02006247WS02006245        1.49      1.50      1.49      1.82         1.49
  WS02006248WS02006247        1.49      1.49      1.50      0.01         0.02
  WS02006249WS02006248        1.49      1.49      1.49      1.81         0.01
  WS02006251WS02006249        1.49      1.49      1.49      1.57         1.46
  WS02006252WS02006251        1.63      1.63      1.63      1.63         0.01
  WS02006256WS02006235        2.24      2.27      4.37      1.44         0.01
  YS02001580YS02001583        0.41      0.41      0.46      0.01         0.01
  YS02001583YS02001586        0.42      0.42      0.53      0.01         0.01
  YS02001586YS02001590        0.54      0.54      0.61      0.01         0.01
  YS02001590YS02001593        0.61      0.61      0.63      0.62         0.01
  YS02001593YS02001596        0.62      0.62      0.73      0.01         0.01
  YS02001596YS02001600        0.78      0.78      0.89      0.01         0.01
  YS02001600YS02001601        0.96      0.96      1.26      0.01         0.01
  YS02001601YS02001602        1.14      1.14      1.31      0.89         0.01
  YS02001602YS02001605        1.09      1.09      1.14      2.17         0.01
  YS02001605YS02001607        1.04      1.09      1.04      1.22         1.04
  YS02001607YS02001610        0.59      0.59      0.61      0.01         0.01
  YS02001610YS02001613        0.58      0.58      0.61      0.01         0.01
  YS02001613YS02001616        0.54      0.54      0.58      0.01         0.01
  YS02001616YS02001619        0.53      0.53      0.54      0.01         0.01
  YS02001619YS02001622        0.53      0.53      0.53      0.62         0.50
  YS02001622YS02001625        0.53      0.53      0.70      0.01         0.01
  YS02001625YS02001629        0.48      0.48      0.70      0.01         0.01
  YS02001629YS02163301        0.70      0.70      0.71      0.07         0.12
  YS02001633YS02163601        0.73      0.73      0.76      0.30         0.29
  YS02001641YS02001644        0.63      0.66      0.63      1.36         0.62
  YS02001644YS02001647        0.44      0.44      0.63      0.01         0.01
  YS02001647YS02001649        0.44      0.44      0.55      0.01         0.01
  YS02001649YS02001757        0.55      0.55      0.61      0.05         0.04
  YS02001652YS02001649        0.39      0.39      0.55      0.01         0.01
  YS02001655YS02001652        0.25      0.25      0.38      0.01         0.01
  YS02001658YS02001655        0.11      0.11      0.25      0.01         0.01
  YS02001661YS02001658        0.01      0.01      0.11      0.01         0.01
  YS02001745YS02001748        0.01      0.01      0.04      0.01         0.01
  YS02001748YS02001751        0.08      0.08      0.17      0.01         0.01
  YS02001751YS02001754        0.17      0.17      0.31      0.01         0.01
  YS02001754YS02001757        0.34      0.34      0.61      0.01         0.01
  YS02001757CaochengTiaoxuchi        0.61      0.61      1.26      0.21         0.22
  YS02001759YS02001757        0.52      0.52      0.61      0.01         0.01
  YS02001762YS02001759        0.49      0.49      0.52      0.01         0.01
  YS02001765YS02001762        0.45      0.45      0.49      0.01         0.01
  YS02001767YS02001765        0.42      0.42      0.45      0.01         0.02
  YS02001770YS02001767        0.42      0.42      0.42      0.29         0.25
  YS02001774YS02001770        0.40      0.40      0.47      0.01         0.01
  YS02001779YS02001774        0.31      0.31      0.47      0.01         0.01
  YS02001783YS02001784        0.32      0.35      0.32      0.50         0.32
  YS02001784YS02001785        0.22      0.32      0.22      0.75         0.22
  YS02001786YS02001788        0.01      0.22      0.01      0.62         0.01
  YS02001790YS02001791        0.01      0.01      0.01      0.31         0.01
  YS02001793JiankangQianchi        0.01      0.01      7.70      0.01         0.01
  YS02001882YS02001884        0.29      0.29      0.30      0.01         0.01
  YS02001884YS02001887        0.33      0.33      0.34      0.01         0.01
  YS02001887YS02001890        0.35      0.35      0.36      0.01         0.01
  YS02001890YS02001895        0.28      0.28      0.38      0.01         0.01
  YS02001895YS02001898        0.28      0.28      0.28      0.01         0.01
  YS02001898YS02001901        0.28      0.28      0.32      0.01         0.01
  YS02001901YS02001904        0.31      0.31      0.32      0.01         0.01
  YS02001904YS02001907        0.31      0.31      0.61      0.01         0.01
  YS02001907YS02006553        0.75      0.75      0.83      0.01         0.01
  YS02001910YS02001907        0.37      0.37      0.58      0.01         0.01
  YS02001915YS02001910        0.29      0.29      0.37      0.01         0.01
  YS02001918YS02001915        0.21      0.21      0.29      0.01         0.01
  YS02001920YS02001918        0.21      0.21      0.22      0.01         0.01
  YS02001923YS02001920        0.17      0.17      0.22      0.01         0.01
  YS02001926YS02001923        0.01      0.01      0.01      0.01         0.01
  YS02001929YS02001926        0.01      0.01      0.01      0.01         0.01
  YS02006553YS02006556        0.47      0.47      0.60      0.01         0.01
  YS02006556YS02006558        0.54      0.54      0.62      0.01         0.01
  YS02006558YS02006561        0.24      0.45      0.24      0.70         0.24
  YS02006561YS02001783        0.18      0.18      0.35      0.01         0.01
  YS02163301YS02001633        0.71      0.71      0.75      0.01         0.01
  YS02163601YS02164001        0.67      0.67      0.76      0.08         0.01
  YS02164001YS02001641        0.66      0.67      0.66      0.63         0.54
  
  
  ***************
  Pumping Summary
  ***************
  
  ---------------------------------------------------------------------------------------------------------
                                                  Min       Avg       Max     Total     Power    % Time Off
                        Percent   Number of      Flow      Flow      Flow    Volume     Usage    Pump Curve
  Pump                 Utilized   Start-Ups       LPS       LPS       LPS  10^6 ltr     Kw-hr    Low   High
  ---------------------------------------------------------------------------------------------------------
  CC-R1                   18.42          14      0.00    683.00    683.00     3.623     66.68    0.0   25.2
  CC-R2                   16.66          14      0.00    683.00    683.00     3.277     60.29    0.0   27.9
  CC-S1                   23.45          14      0.00    200.00    200.00     1.351      7.88    0.0    0.0
  CC-S2                   20.39          14      0.00    200.00    200.00     1.174      6.83    0.0    0.0
  JK-R1                    5.96          10      0.00   1000.00   1000.00     1.717     20.22    0.0    0.0
  JK-R2                    0.16           1      0.00   1000.00   1000.00     0.047      0.36    0.0    0.0
  JK-S                    17.89          11      0.00    300.00    300.00     1.546     21.18    0.0    0.0
  XR-1                    97.91           2      0.00     95.00     95.00     2.679      9.60    0.0    0.0
  XR-2                    93.94           2      0.00     95.00     95.00     2.570      8.76    0.0    0.0
  XR-3                     0.00           1      0.00     95.00     95.00     0.000      0.00    0.0    0.0
  XR-4                     0.00           1      0.00     95.00     95.00     0.000      0.00    0.0    0.0
  

  Analysis begun on:  Wed Nov  5 16:30:45 2025
  Analysis ended on:  Wed Nov  5 16:30:47 2025
  Total elapsed time: 00:00:02