
  EPA STORM WATER MANAGEMENT MODEL - VERSION 5.2 (Build 5.2.4)
  PYSWMM TOOLKIT API - VERSION v1.0 (2023-11-27)
  ------------------------------------------------------------

  WARNING 04: minimum elevation drop used for Conduit WS02004404WS02004405
  WARNING 03: negative offset ignored for Link YS02001904YS02001907
  
  ****************
  Analysis Options
  ****************
  Flow Units ............... LPS
  Process Models:
    Rainfall/Runoff ........ YES
    RDII ................... NO
    Snowmelt ............... NO
    Groundwater ............ NO
    Flow Routing ........... YES
    Ponding Allowed ........ NO
    Water Quality .......... NO
  Infiltration Method ...... HORTON
  Flow Routing Method ...... DYNWAVE
  Surcharge Method ......... EXTRAN
  Starting Date ............ 08/28/2015 08:00:00
  Ending Date .............. 08/28/2015 16:00:00
  Antecedent Dry Days ...... 8.0
  Report Time Step ......... 00:01:00
  Wet Time Step ............ 00:01:00
  Dry Time Step ............ 00:01:00
  Routing Time Step ........ 30.00 sec
  Variable Time Step ....... YES
  Maximum Trials ........... 8
  Number of Threads ........ 4
  Head Tolerance ........... 0.001500 m
  
  
  **************************        Volume         Depth
  Runoff Quantity Continuity     hectare-m            mm
  **************************     ---------       -------
  Initial LID Storage ......         0.049         1.488
  Total Precipitation ......         2.189        66.007
  Evaporation Loss .........         0.000         0.000
  Infiltration Loss ........         0.078         2.359
  Surface Runoff ...........         1.624        48.965
  Final Storage ............         0.537        16.190
  Continuity Error (%) .....        -0.029
  
  
  **************************        Volume        Volume
  Flow Routing Continuity        hectare-m      10^6 ltr
  **************************     ---------     ---------
  Dry Weather Inflow .......         0.602         6.020
  Wet Weather Inflow .......         1.624        16.241
  Groundwater Inflow .......         0.000         0.000
  RDII Inflow ..............         0.000         0.000
  External Inflow ..........         0.105         1.045
  External Outflow .........         1.910        19.102
  Flooding Loss ............         0.397         3.973
  Evaporation Loss .........         0.000         0.000
  Exfiltration Loss ........         0.000         0.000
  Initial Stored Volume ....         0.303         3.031
  Final Stored Volume ......         0.332         3.323
  Continuity Error (%) .....        -0.232
  
  
  *************************
  Highest Continuity Errors
  *************************
  Node YS02001884 (4.91%)
  Node YS02001583 (-4.37%)
  Node WS02006256 (-1.05%)
  
  
  ***************************
  Time-Step Critical Elements
  ***************************
  Link WS02004404WS02004405 (29.86%)
  Link WS02006238WS02006235 (18.63%)
  Link WS02006252WS02006251 (11.87%)
  Link YS02001791YS02001793 (11.24%)
  Link WS02003066WSF200 (8.95%)
  
  
  ********************************
  Highest Flow Instability Indexes
  ********************************
  Link WS02006113WS02006111 (30)
  Link WS02006252WS02006251 (23)
  Link WS02006238WS02006235 (20)
  Link YS02006558YS02006561 (17)
  Link WS02006111WS02006112 (17)
  
  
  *********************************
  Most Frequent Nonconverging Nodes
  *********************************
  Node CC-1 (19.32%)
  Node CC-2 (19.32%)
  Node JK-1 (19.32%)
  Node JK-2 (19.32%)
  Node WSC (19.32%)
  
  
  *************************
  Routing Time Step Summary
  *************************
  Minimum Time Step           :     0.00 sec
  Average Time Step           :     3.20 sec
  Maximum Time Step           :     7.04 sec
  % of Time in Steady State   :     0.00
  Average Iterations per Step :     3.56
  % of Steps Not Converging   :    19.32
  Time Step Frequencies       :
     30.000 - 13.228 sec      :     0.00 %
     13.228 -  5.833 sec      :    22.28 %
      5.833 -  2.572 sec      :    31.92 %
      2.572 -  1.134 sec      :    24.11 %
      1.134 -  0.500 sec      :    21.69 %
  
  
  ***************************
  Subcatchment Runoff Summary
  ***************************
  
  ------------------------------------------------------------------------------------------------------------------------------
                            Total      Total      Total      Total     Imperv       Perv      Total       Total     Peak  Runoff
                           Precip      Runon       Evap      Infil     Runoff     Runoff     Runoff      Runoff   Runoff   Coeff
  Subcatchment                 mm         mm         mm         mm         mm         mm         mm    10^6 ltr      LPS
  ------------------------------------------------------------------------------------------------------------------------------
  sub60                     66.01       0.00       0.00       1.40      43.90       4.72      48.62        0.64   409.70   0.737
  sub61                     66.01       0.00       0.00       2.15      43.86       7.03      50.89        0.93   599.04   0.771
  sub62                     66.01       0.00       0.00       0.95      46.76       3.20      49.97        1.37   820.13   0.757
  sub63                     66.01       0.00       0.00       3.94      37.57      11.73      49.30        1.12   687.02   0.747
  sub64                     66.01       0.00       0.00       1.89      42.78       5.82      48.60        1.17   677.61   0.736
  sub65                     66.01       0.00       0.00       1.73      46.17       5.32      51.49        1.42   796.52   0.780
  sub66                     66.01       0.00       0.00       4.61      36.33      10.56      46.89        2.19  1058.37   0.710
  sub67                     66.01       0.00       0.00       0.94      47.94       3.32      51.26        0.95   631.74   0.777
  sub68                     66.01       0.00       0.00       1.65      42.34       5.39      47.73        1.31   817.94   0.723
  sub69                     66.01       0.00       0.00       1.52      44.38       6.33      50.71        1.88  1029.17   0.768
  sub70                     66.01       0.00       0.00       5.11      35.56      13.26      48.82        1.41   614.93   0.740
  sub71                     66.01       0.00       0.00       0.88      42.48       2.90      45.38        1.19   682.78   0.687
  sub72                     66.01       0.00       0.00       0.84      45.89       2.70      48.58        0.67   356.98   0.736
  

  ***********************
  LID Performance Summary
  ***********************

  --------------------------------------------------------------------------------------------------------------------
                                         Total      Evap     Infil   Surface    Drain    Initial     Final  Continuity
                                        Inflow      Loss      Loss   Outflow   Outflow   Storage   Storage       Error
  Subcatchment      LID Control             mm        mm        mm        mm        mm        mm        mm           %
  --------------------------------------------------------------------------------------------------------------------
  sub60             GreenRoof            66.01      0.00      0.00      0.00      0.00      7.05     73.10       -0.06
  sub61             GreenRoof            66.01      0.00      0.00      0.00      0.00      7.05     73.10       -0.06
  sub62             GreenRoof            66.01      0.00      0.00      0.00      0.00      7.05     73.10       -0.06
  sub63             GreenRoof            66.01      0.00      0.00      0.00      0.00      7.05     73.10       -0.06
  sub64             GreenRoof            66.01      0.00      0.00      0.00      0.00      7.05     73.10       -0.06
  sub65             GreenRoof            66.01      0.00      0.00      0.00      0.00      7.05     73.10       -0.06
  sub66             GreenRoof            66.01      0.00      0.00      0.00      0.00      7.05     73.10       -0.06
  sub67             GreenRoof            66.01      0.00      0.00      0.00      0.00      7.05     73.10       -0.06
  sub68             GreenRoof            66.01      0.00      0.00      0.00      0.00      7.05     73.10       -0.06
  sub69             GreenRoof            66.01      0.00      0.00      0.00      0.00      7.05     73.10       -0.06
  sub70             GreenRoof            66.01      0.00      0.00      0.00      0.00      7.05     73.10       -0.06
  sub71             GreenRoof            66.01      0.00      0.00      0.00      0.00      7.05     73.10       -0.06
  sub72             GreenRoof            66.01      0.00      0.00      0.00      0.00      7.05     73.10       -0.06
  
  ******************
  Node Depth Summary
  ******************
  
  ---------------------------------------------------------------------------------
                                 Average  Maximum  Maximum  Time of Max    Reported
                                   Depth    Depth      HGL   Occurrence   Max Depth
  Node                 Type       Meters   Meters   Meters  days hr:min      Meters
  ---------------------------------------------------------------------------------
  WS02001211           JUNCTION     0.60     0.64     5.48     0  02:35        0.64
  WS02001212           JUNCTION     0.34     0.38     5.45     0  02:33        0.38
  WS02001213           JUNCTION     0.53     0.65     5.41     0  02:27        0.65
  WS02003059           JUNCTION     0.60     0.72     5.40     0  02:33        0.72
  WS02003060           JUNCTION     0.30     0.45     5.38     0  02:31        0.45
  WS02003066           JUNCTION     0.16     0.30     5.85     0  02:23        0.30
  WS02003067           JUNCTION     0.44     0.70     6.02     0  02:22        0.70
  WS02003069           JUNCTION     0.34     0.51     5.09     0  02:34        0.51
  WS02003072           JUNCTION     0.40     0.57     4.94     0  02:34        0.57
  WS02003073           JUNCTION     0.24     0.35     4.41     0  02:35        0.35
  WS02004138           JUNCTION     0.13     0.14     7.39     0  00:29        0.14
  WS02004139           JUNCTION     0.54     0.58     5.49     0  02:36        0.58
  WS02004401           JUNCTION     0.53     0.85     6.85     0  02:20        0.85
  WS02004402           JUNCTION     0.56     0.88     6.84     0  02:20        0.88
  WS02004403           JUNCTION     0.59     0.89     6.82     0  02:21        0.89
  WS02004404           JUNCTION     0.66     0.96     6.81     0  02:21        0.96
  WS02004405           JUNCTION     0.66     0.95     6.80     0  02:21        0.95
  WS02004406           JUNCTION     0.67     0.96     6.79     0  02:21        0.95
  WS02004407           JUNCTION     0.14     0.29     6.61     0  02:21        0.29
  WS02004409           JUNCTION     0.32     0.66     6.43     0  02:21        0.66
  WS02004410           JUNCTION     0.35     0.68     6.40     0  02:22        0.68
  WS02004411           JUNCTION     0.37     0.69     6.37     0  02:22        0.69
  WS02004412           JUNCTION     0.40     0.70     6.34     0  02:22        0.70
  WS02004413           JUNCTION     0.55     0.86     6.33     0  02:22        0.86
  WS02006109           JUNCTION     0.60     1.46     8.08     0  02:44        1.16
  WS02006110           JUNCTION     0.60     2.18     8.77     0  02:44        1.03
  WS02006111           JUNCTION     0.15     0.29     6.99     0  03:09        0.29
  WS02006112           JUNCTION     0.68     1.12     7.00     0  02:44        1.05
  WS02006113           JUNCTION     0.23     0.46     7.35     0  02:44        0.45
  WS02006115           JUNCTION     0.42     0.75     6.89     0  02:25        0.75
  WS02006116           JUNCTION     0.50     0.83     6.87     0  02:20        0.83
  WS02006228           JUNCTION     0.59     3.03     9.68     0  02:44        3.03
  WS02006229           JUNCTION     0.56     3.25     9.94     0  02:44        3.25
  WS02006230           JUNCTION     0.56     2.08     8.83     0  02:44        1.25
  WS02006231           JUNCTION     0.37     2.24     9.36     0  02:44        2.24
  WS02006232           JUNCTION     0.50     2.18     9.22     0  02:44        2.18
  WS02006234           JUNCTION     0.43     1.96     9.12     0  02:44        1.96
  WS02006235           JUNCTION     0.48     2.00     9.16     0  02:44        2.00
  WS02006238           JUNCTION     0.50     2.15     9.29     0  02:44        2.15
  WS02006239           JUNCTION     0.46     2.03     9.24     0  02:44        2.03
  WS02006240           JUNCTION     0.44     2.10     9.39     0  02:44        2.10
  WS02006242           JUNCTION     0.49     1.55     8.82     0  02:00        1.55
  WS02006243           JUNCTION     0.42     1.48     8.90     0  02:02        1.48
  WS02006245           JUNCTION     0.42     1.56     9.04     0  02:44        1.56
  WS02006247           JUNCTION     0.44     1.47     8.97     0  02:44        1.47
  WS02006248           JUNCTION     0.41     1.10     8.69     0  02:02        1.10
  WS02006249           JUNCTION     0.44     1.09     8.69     0  02:02        1.09
  WS02006251           JUNCTION     0.44     1.76     9.43     0  02:37        1.24
  WS02006252           JUNCTION     0.30     1.50     9.74     0  00:00        0.82
  WS02006256           JUNCTION     1.10     2.35     9.28     0  00:00        2.35
  WSF200               JUNCTION     0.14     0.31     5.54     0  02:25        0.31
  YS02001580           JUNCTION     0.11     1.05     9.59     0  02:04        0.77
  YS02001583           JUNCTION     0.14     1.07     9.57     0  02:04        0.82
  YS02001586           JUNCTION     0.24     1.13     9.30     0  02:04        1.13
  YS02001590           JUNCTION     0.35     1.40     9.26     0  02:04        1.37
  YS02001593           JUNCTION     0.28     1.34     9.20     0  02:04        1.28
  YS02001596           JUNCTION     0.40     1.68     9.10     0  02:04        1.68
  YS02001600           JUNCTION     0.50     1.87     9.00     0  02:04        1.87
  YS02001601           JUNCTION     0.70     2.06     8.90     0  02:03        2.06
  YS02001602           JUNCTION     0.60     1.87     8.77     0  02:06        1.87
  YS02001605           JUNCTION     0.55     1.78     8.68     0  02:16        1.78
  YS02001607           JUNCTION     0.52     1.65     8.50     0  02:14        1.65
  YS02001610           JUNCTION     0.56     1.68     8.48     0  02:06        1.68
  YS02001613           JUNCTION     0.52     1.66     8.50     0  02:11        1.65
  YS02001616           JUNCTION     0.45     1.61     8.52     0  02:14        1.61
  YS02001619           JUNCTION     0.43     1.60     8.53     0  02:14        1.60
  YS02001622           JUNCTION     0.42     1.57     8.47     0  02:14        1.57
  YS02001625           JUNCTION     0.68     1.78     8.38     0  02:06        1.78
  YS02001629           JUNCTION     0.56     1.85     8.40     0  02:07        1.85
  YS02001633           JUNCTION     0.64     2.03     8.48     0  02:10        2.03
  YS02001641           JUNCTION     0.61     1.97     8.40     0  02:10        1.97
  YS02001644           JUNCTION     0.60     1.92     8.35     0  02:09        1.92
  YS02001647           JUNCTION     0.38     1.75     8.36     0  02:09        1.73
  YS02001649           JUNCTION     0.43     1.96     8.35     0  02:12        1.93
  YS02001652           JUNCTION     0.31     1.80     8.40     0  02:12        1.74
  YS02001655           JUNCTION     0.23     1.72     8.57     0  02:09        1.51
  YS02001658           JUNCTION     0.17     1.61     8.75     0  02:09        1.27
  YS02001661           JUNCTION     0.18     1.16     8.56     0  02:12        1.07
  YS02001664           JUNCTION     0.07     0.50     8.42     0  02:12        0.44
  YS02001745           JUNCTION     0.08     0.74     8.26     0  02:13        0.73
  YS02001748           JUNCTION     0.16     1.49     8.56     0  02:10        1.18
  YS02001751           JUNCTION     0.20     1.52     8.40     0  02:10        1.38
  YS02001754           JUNCTION     0.27     1.69     8.30     0  02:10        1.65
  YS02001757           JUNCTION     0.45     1.99     8.25     0  02:12        1.98
  YS02001759           JUNCTION     0.39     1.97     8.33     0  02:13        1.97
  YS02001762           JUNCTION     0.38     1.96     8.36     0  02:10        1.96
  YS02001765           JUNCTION     0.36     1.95     8.40     0  02:10        1.95
  YS02001767           JUNCTION     0.35     1.95     8.44     0  02:10        1.95
  YS02001770           JUNCTION     0.36     1.95     8.44     0  02:09        1.95
  YS02001774           JUNCTION     0.43     2.05     8.47     0  02:10        2.05
  YS02001779           JUNCTION     0.25     1.68     8.37     0  02:07        1.68
  YS02001783           JUNCTION     0.30     1.26     7.41     0  02:09        1.23
  YS02001784           JUNCTION     0.31     1.13     7.20     0  02:09        1.12
  YS02001786           JUNCTION     0.26     0.89     6.92     0  02:09        0.87
  YS02001788           JUNCTION     0.19     0.62     6.60     0  02:13        0.62
  YS02001790           JUNCTION     0.23     0.72     6.37     0  02:12        0.72
  YS02001791           JUNCTION     0.14     0.44     5.91     0  02:12        0.44
  YS02001793           JUNCTION     0.08     0.30     5.13     0  02:15        0.29
  YS02001882           JUNCTION     0.36     1.67     8.39     0  02:09        1.66
  YS02001884           JUNCTION     0.45     1.76     8.38     0  02:09        1.76
  YS02001887           JUNCTION     0.53     1.83     8.36     0  02:09        1.83
  YS02001890           JUNCTION     0.55     1.81     8.32     0  02:09        1.81
  YS02001895           JUNCTION     0.33     1.59     8.33     0  02:16        1.59
  YS02001898           JUNCTION     0.34     1.61     8.34     0  02:16        1.61
  YS02001901           JUNCTION     0.45     1.69     8.30     0  02:16        1.69
  YS02001904           JUNCTION     0.43     1.66     8.29     0  02:16        1.66
  YS02001907           JUNCTION     0.74     1.96     8.25     0  02:09        1.96
  YS02001910           JUNCTION     0.54     2.06     8.57     0  02:10        2.06
  YS02001915           JUNCTION     0.36     2.00     8.72     0  02:10        2.00
  YS02001918           JUNCTION     0.18     1.81     8.88     0  02:10        1.78
  YS02001920           JUNCTION     0.27     2.06     9.07     0  02:10        1.97
  YS02001923           JUNCTION     0.14     2.00     9.26     0  02:10        1.77
  YS02001926           JUNCTION     0.18     1.90     9.35     0  02:10        1.32
  YS02001929           JUNCTION     0.10     1.78     9.47     0  02:10        0.98
  YS02006553           JUNCTION     0.75     1.97     8.26     0  02:10        1.97
  YS02006556           JUNCTION     0.72     1.94     8.26     0  02:12        1.93
  YS02006558           JUNCTION     0.76     1.99     8.26     0  02:11        1.98
  YS02006561           JUNCTION     0.18     0.95     7.61     0  02:09        0.89
  YS02163301           JUNCTION     0.59     1.93     8.44     0  02:10        1.93
  YS02163601           JUNCTION     0.67     2.05     8.45     0  02:10        2.05
  YS02164001           JUNCTION     0.60     1.97     8.43     0  02:10        1.97
  CC-1                 OUTFALL      0.00     0.00     0.00     0  00:00        0.00
  CC-2                 OUTFALL      0.00     0.00     0.00     0  00:00        0.00
  JK-1                 OUTFALL      0.00     0.00     0.00     0  00:00        0.00
  JK-2                 OUTFALL      0.00     0.00     0.00     0  00:00        0.00
  WSC                  OUTFALL      0.24     0.35     1.02     0  02:35        0.35
  CC-storage           STORAGE      0.88     1.70     7.20     0  02:34        1.70
  JK-storage           STORAGE      3.24     4.24     5.04     0  02:25        4.20
  XR-storage           STORAGE      7.83     9.26     7.26     0  08:00        9.26
  
  
  *******************
  Node Inflow Summary
  *******************
  
  -------------------------------------------------------------------------------------------------
                                  Maximum  Maximum                  Lateral       Total        Flow
                                  Lateral    Total  Time of Max      Inflow      Inflow     Balance
                                   Inflow   Inflow   Occurrence      Volume      Volume       Error
  Node                 Type           LPS      LPS  days hr:min    10^6 ltr    10^6 ltr     Percent
  -------------------------------------------------------------------------------------------------
  WS02001211           JUNCTION      7.35   200.31     0  02:43       0.212        5.44       0.611
  WS02001212           JUNCTION      0.00   202.35     0  03:47           0        5.41       0.290
  WS02001213           JUNCTION      0.00   204.47     0  03:48           0        5.39       0.335
  WS02003059           JUNCTION      0.00   209.62     0  03:48           0        5.38       0.600
  WS02003060           JUNCTION     16.53   749.04     0  02:30       0.476        9.35       0.163
  WS02003066           JUNCTION      0.00   532.80     0  02:23           0        3.52       0.049
  WS02003067           JUNCTION      0.00   532.73     0  02:23           0        3.53       0.133
  WS02003069           JUNCTION      0.32   745.37     0  02:31     0.00922        9.33       0.172
  WS02003072           JUNCTION      0.00   744.88     0  02:34           0        9.32       0.233
  WS02003073           JUNCTION      1.82   746.45     0  02:34      0.0524        9.35       0.245
  WS02004138           JUNCTION      0.00   380.00     0  00:00           0        5.25       0.053
  WS02004139           JUNCTION      0.32   191.16     0  00:29     0.00924        5.26       0.509
  WS02004401           JUNCTION      0.00   542.68     0  02:45           0        3.64       0.298
  WS02004402           JUNCTION      0.00   536.79     0  02:22           0        3.63       0.302
  WS02004403           JUNCTION      0.00   536.44     0  02:22           0        3.62       0.293
  WS02004404           JUNCTION      0.16   535.78     0  02:21     0.00467        3.61       0.245
  WS02004405           JUNCTION      0.04   535.51     0  02:21      0.0011         3.6       0.361
  WS02004406           JUNCTION      0.00   535.54     0  02:21           0        3.59       0.601
  WS02004407           JUNCTION      0.00   535.23     0  02:21           0        3.57       0.045
  WS02004409           JUNCTION      0.00   535.02     0  02:21           0        3.57       0.107
  WS02004410           JUNCTION      0.00   533.88     0  02:22           0        3.56       0.157
  WS02004411           JUNCTION      0.00   533.71     0  02:22           0        3.56       0.191
  WS02004412           JUNCTION      0.00   533.30     0  02:22           0        3.55       0.246
  WS02004413           JUNCTION      0.00   532.82     0  02:22           0        3.54       0.425
  WS02006109           JUNCTION      1.23   648.31     0  02:44      0.0354        3.69       0.240
  WS02006110           JUNCTION      0.00   655.86     0  02:44           0        3.68       0.199
  WS02006111           JUNCTION      0.00   565.21     0  02:44           0        3.67       0.026
  WS02006112           JUNCTION      0.00   542.78     0  03:09           0        3.67       0.489
  WS02006113           JUNCTION      0.00   593.19     0  02:44           0        3.67       0.052
  WS02006115           JUNCTION      0.00   577.24     0  02:44           0        3.65       0.197
  WS02006116           JUNCTION      0.00   551.72     0  02:45           0        3.65       0.174
  WS02006228           JUNCTION      0.00   617.05     0  02:44           0        3.66       0.098
  WS02006229           JUNCTION      0.00   608.78     0  02:44           0        3.66       0.149
  WS02006230           JUNCTION     10.28   598.26     0  03:26       0.296        3.67       0.123
  WS02006231           JUNCTION      0.00   575.72     0  02:06           0        3.37      -0.161
  WS02006232           JUNCTION      0.00   575.11     0  02:06           0        3.38       0.403
  WS02006234           JUNCTION      0.00   570.89     0  02:06           0        3.37      -0.316
  WS02006235           JUNCTION      0.00   565.79     0  02:06           0        3.46       0.281
  WS02006238           JUNCTION      0.00   428.94     0  03:25           0        2.54      -0.123
  WS02006239           JUNCTION      0.00   427.97     0  03:25           0        2.49      -0.021
  WS02006240           JUNCTION      0.00   425.46     0  03:25           0        2.45      -0.064
  WS02006242           JUNCTION      0.00   427.48     0  03:25           0        2.41      -0.128
  WS02006243           JUNCTION      0.00   428.99     0  03:25           0         2.4      -0.020
  WS02006245           JUNCTION      0.00   430.09     0  03:25           0         2.4       0.413
  WS02006247           JUNCTION      0.00   430.42     0  03:25           0         2.4      -0.022
  WS02006248           JUNCTION      0.00   431.85     0  03:25           0         2.4      -0.094
  WS02006249           JUNCTION      0.00   458.97     0  00:00           0        2.62       0.488
  WS02006251           JUNCTION      0.08   421.83     0  03:35     0.00222        2.62       0.030
  WS02006252           JUNCTION      0.00   400.00     0  00:00           0        2.61      -0.319
  WS02006256           JUNCTION      0.00   300.00     0  00:00           0         1.4      -1.037
  WSF200               JUNCTION      0.00   532.81     0  02:23           0        3.52       0.028
  YS02001580           JUNCTION      0.00    77.49     0  02:04           0     0.00398       0.998
  YS02001583           JUNCTION      0.00   135.95     0  02:03           0      0.0151      -4.191
  YS02001586           JUNCTION    614.93   614.96     0  02:15        1.41        1.42       0.077
  YS02001590           JUNCTION      0.00   317.99     0  02:14           0         1.2      -0.029
  YS02001593           JUNCTION      0.00   318.06     0  02:17           0         1.2       0.006
  YS02001596           JUNCTION      0.00   317.98     0  02:11           0         1.2      -0.005
  YS02001600           JUNCTION      0.00   318.07     0  02:11           0         1.2       0.023
  YS02001601           JUNCTION   1029.17  1346.72     0  02:14        1.88        3.08       0.027
  YS02001602           JUNCTION      0.00   499.31     0  02:03           0        2.12       0.019
  YS02001605           JUNCTION      0.00   498.66     0  02:03           0        2.02       0.029
  YS02001607           JUNCTION      0.00   497.70     0  02:03           0        2.02       0.096
  YS02001610           JUNCTION      0.00   529.09     0  02:15           0        2.09       0.114
  YS02001613           JUNCTION      0.00   498.44     0  02:02           0        1.75       0.094
  YS02001616           JUNCTION      0.00   496.04     0  02:03           0        1.75       0.024
  YS02001619           JUNCTION   1058.37  1058.37     0  02:15        2.19        3.86       0.001
  YS02001622           JUNCTION      0.00   913.16     0  02:06           0        3.79      -0.001
  YS02001625           JUNCTION      0.00  1168.00     0  02:14           0         3.9       0.237
  YS02001629           JUNCTION      0.00   912.68     0  02:06           0        3.17       0.016
  YS02001633           JUNCTION    796.72  1299.67     0  02:06        1.42        4.47       0.075
  YS02001641           JUNCTION      0.00  1297.03     0  02:06           0        4.36       0.065
  YS02001644           JUNCTION    677.65  1642.72     0  02:06        1.17        5.52       0.059
  YS02001647           JUNCTION      0.00  1644.40     0  02:06           0        5.36       0.008
  YS02001649           JUNCTION      0.00  1808.25     0  02:05           0        6.48       0.003
  YS02001652           JUNCTION      0.00   733.36     0  02:13           0        1.13      -0.071
  YS02001655           JUNCTION      0.15   732.40     0  02:13     0.00443        1.12      -0.055
  YS02001658           JUNCTION      0.00   731.63     0  02:13           0        1.12      -0.028
  YS02001661           JUNCTION      0.00   848.82     0  02:13           0        1.12       0.023
  YS02001664           JUNCTION    687.02   687.02     0  02:13        1.12        1.12      -0.009
  YS02001745           JUNCTION    409.70   409.70     0  02:13       0.639       0.639       0.176
  YS02001748           JUNCTION      0.04   506.64     0  02:10      0.0013       0.639      -0.304
  YS02001751           JUNCTION      0.01   424.09     0  02:13    0.000317       0.648       0.103
  YS02001754           JUNCTION      0.26   424.12     0  02:13     0.00749       0.665      -0.174
  YS02001757           JUNCTION      0.00  3023.53     0  02:12           0        9.42       0.010
  YS02001759           JUNCTION    599.08  1234.78     0  02:12       0.935        2.28      -0.014
  YS02001762           JUNCTION      0.00   678.66     0  02:11           0        1.34      -0.010
  YS02001765           JUNCTION      0.00   680.23     0  02:11           0        1.34      -0.008
  YS02001767           JUNCTION      0.54   680.21     0  02:11      0.0154        1.34       0.009
  YS02001770           JUNCTION    820.28   820.28     0  02:13        1.37        1.42      -0.040
  YS02001774           JUNCTION      0.00   278.70     0  02:07           0       0.108       0.815
  YS02001779           JUNCTION      0.01   282.09     0  02:07    0.000144      0.0633      -1.383
  YS02001783           JUNCTION      0.00  1157.04     0  02:12           0        3.56       0.007
  YS02001784           JUNCTION      1.06  1158.10     0  02:12      0.0305        3.59       0.014
  YS02001786           JUNCTION      0.06  1158.13     0  02:13     0.00162        3.59       0.020
  YS02001788           JUNCTION      0.07  1159.53     0  02:13     0.00204        3.59       0.008
  YS02001790           JUNCTION      0.15  1171.55     0  02:13     0.00446         3.6       0.026
  YS02001791           JUNCTION      0.00  1286.67     0  02:12           0         3.6      -0.024
  YS02001793           JUNCTION      0.00  1243.34     0  02:13           0         3.6       0.005
  YS02001882           JUNCTION      0.00    31.39     0  02:07           0      0.0126       5.149
  YS02001884           JUNCTION      0.00    56.61     0  02:06           0      0.0482       5.164
  YS02001887           JUNCTION    632.19   632.49     0  02:13       0.966           1       0.438
  YS02001890           JUNCTION      0.00   632.25     0  02:13           0       0.959       0.536
  YS02001895           JUNCTION      0.00   515.95     0  02:15           0        0.93       0.161
  YS02001898           JUNCTION      0.00   516.26     0  02:15           0       0.928       0.019
  YS02001901           JUNCTION      0.00   516.08     0  02:15           0       0.931       0.352
  YS02001904           JUNCTION      0.00   516.58     0  02:15           0       0.935       0.292
  YS02001907           JUNCTION      0.00  1607.46     0  02:14           0        2.87       0.629
  YS02001910           JUNCTION      0.00  1092.06     0  02:14           0        1.94       0.371
  YS02001915           JUNCTION    682.80  1091.17     0  02:14        1.19        1.97       0.079
  YS02001918           JUNCTION      0.00   441.53     0  02:10           0       0.805       0.024
  YS02001920           JUNCTION      2.87   440.08     0  02:10      0.0827       0.791       0.146
  YS02001923           JUNCTION      0.04   403.97     0  02:14     0.00109       0.694      -0.034
  YS02001926           JUNCTION      0.05   410.70     0  02:09      0.0015       0.677       0.051
  YS02001929           JUNCTION    356.98   356.98     0  02:14       0.668       0.668      -0.069
  YS02006553           JUNCTION      0.00   793.14     0  02:24           0        2.27       0.525
  YS02006556           JUNCTION      0.00   794.45     0  02:25           0        2.28       0.362
  YS02006558           JUNCTION    818.82  1157.89     0  02:12        1.34        3.59       0.105
  YS02006561           JUNCTION      0.00  1156.87     0  02:12           0        3.56      -0.009
  YS02163301           JUNCTION      0.00   911.23     0  02:06           0        3.16       0.048
  YS02163601           JUNCTION      0.11  1299.20     0  02:06     0.00317        4.36       0.112
  YS02164001           JUNCTION      0.00  1298.77     0  02:06           0        4.36       0.049
  CC-1                 OUTFALL       0.00   683.00     0  00:00           0        3.91       0.000
  CC-2                 OUTFALL       0.00   683.00     0  00:00           0        3.65       0.000
  JK-1                 OUTFALL       0.00  1000.00     0  00:00           0        2.16       0.000
  JK-2                 OUTFALL       0.00  1000.00     0  00:00           0      0.0484       0.000
  WSC                  OUTFALL       0.00   746.35     0  02:35           0        9.32       0.000
  CC-storage           STORAGE       0.00  3021.81     0  02:12           0        11.6      -0.203
  JK-storage           STORAGE       0.00  1261.91     0  02:09           0        3.75      -0.026
  XR-storage           STORAGE     200.00   200.00     0  00:00        5.76        6.36       0.001
  
  
  **********************
  Node Surcharge Summary
  **********************
  
  Surcharging occurs when water rises above the top of the highest conduit.
  ---------------------------------------------------------------------
                                               Max. Height   Min. Depth
                                   Hours       Above Crown    Below Rim
  Node                 Type      Surcharged         Meters       Meters
  ---------------------------------------------------------------------
  WS02006109           JUNCTION        1.54          0.643        1.177
  WS02006110           JUNCTION        0.62          1.271        0.579
  WS02006112           JUNCTION        0.80          0.116        1.564
  WS02006228           JUNCTION        1.54          2.200        0.000
  WS02006229           JUNCTION        1.54          2.450        0.000
  WS02006230           JUNCTION        0.62          1.001        0.569
  WS02006231           JUNCTION        0.85          1.530        0.000
  WS02006232           JUNCTION        1.57          1.480        0.000
  WS02006234           JUNCTION        1.25          1.240        0.000
  WS02006235           JUNCTION        1.47          1.290        0.000
  WS02006238           JUNCTION        1.53          1.430        0.000
  WS02006239           JUNCTION        1.51          1.290        0.000
  WS02006240           JUNCTION        1.53          1.390        0.000
  WS02006242           JUNCTION        1.58          0.820        0.000
  WS02006243           JUNCTION        1.53          0.770        0.000
  WS02006245           JUNCTION        1.54          0.850        0.000
  WS02006247           JUNCTION        1.55          0.760        0.000
  WS02006248           JUNCTION        1.53          0.380        0.000
  WS02006249           JUNCTION        1.55          0.390        0.000
  WS02006251           JUNCTION        0.96          0.726        0.454
  WS02006252           JUNCTION        1.72          1.100        0.000
  WS02006256           JUNCTION        4.42          2.050        0.000
  YS02001580           JUNCTION        0.52          0.450        0.000
  YS02001583           JUNCTION        0.53          0.431        0.069
  YS02001586           JUNCTION        0.64          0.510        0.000
  YS02001590           JUNCTION        0.71          0.750        0.000
  YS02001593           JUNCTION        0.72          0.718        0.122
  YS02001596           JUNCTION        0.83          0.953        0.117
  YS02001600           JUNCTION        1.00          1.190        0.000
  YS02001601           JUNCTION        1.37          1.440        0.000
  YS02001602           JUNCTION        1.26          1.270        0.000
  YS02001605           JUNCTION        1.21          1.180        0.000
  YS02001607           JUNCTION        0.70          0.652        0.028
  YS02001610           JUNCTION        0.73          0.680        0.000
  YS02001613           JUNCTION        0.69          0.659        0.041
  YS02001616           JUNCTION        0.65          0.610        0.000
  YS02001619           JUNCTION        0.64          0.602        0.008
  YS02001622           JUNCTION        0.64          0.567        0.053
  YS02001625           JUNCTION        0.82          0.780        0.000
  YS02001629           JUNCTION        0.60          0.470        0.000
  YS02001633           JUNCTION        0.85          1.008        0.052
  YS02001641           JUNCTION        0.79          0.966        0.134
  YS02001644           JUNCTION        0.76          0.920        0.000
  YS02001647           JUNCTION        0.56          0.753        0.147
  YS02001649           JUNCTION        0.68          0.960        0.090
  YS02001652           JUNCTION        0.49          0.774        0.356
  YS02001655           JUNCTION        0.35          0.720        0.480
  YS02001658           JUNCTION        0.17          0.607        0.693
  YS02001661           JUNCTION        0.01          0.087        1.303
  YS02001748           JUNCTION        0.11          0.407        0.783
  YS02001751           JUNCTION        0.25          0.516        0.684
  YS02001754           JUNCTION        0.42          0.641        0.509
  YS02001757           JUNCTION        0.75          0.990        0.220
  YS02001759           JUNCTION        0.66          0.966        0.244
  YS02001762           JUNCTION        0.63          0.958        0.192
  YS02001765           JUNCTION        0.59          0.946        0.154
  YS02001767           JUNCTION        0.55          0.949        0.081
  YS02001770           JUNCTION        0.53          0.920        0.000
  YS02001774           JUNCTION        0.60          1.045        0.005
  YS02001779           JUNCTION        0.40          0.680        0.000
  YS02001783           JUNCTION        0.42          0.464        1.136
  YS02001784           JUNCTION        0.40          0.332        1.158
  YS02001786           JUNCTION        0.30          0.090        1.340
  YS02001882           JUNCTION        0.37          0.675        0.155
  YS02001884           JUNCTION        0.38          0.699        0.171
  YS02001887           JUNCTION        0.41          0.776        0.174
  YS02001890           JUNCTION        0.43          0.760        0.000
  YS02001895           JUNCTION        0.36          0.587        0.163
  YS02001898           JUNCTION        0.35          0.578        0.162
  YS02001901           JUNCTION        0.40          0.691        0.179
  YS02001904           JUNCTION        0.39          0.661        0.189
  YS02001907           JUNCTION        0.65          0.950        0.000
  YS02001910           JUNCTION        0.45          1.064        0.036
  YS02001915           JUNCTION        0.37          1.000        0.000
  YS02001918           JUNCTION        0.29          0.810        0.000
  YS02001920           JUNCTION        0.30          1.065        0.075
  YS02001923           JUNCTION        0.01          0.790        0.030
  YS02001926           JUNCTION        0.03          0.900        0.000
  YS02001929           JUNCTION        0.01          0.780        0.000
  YS02006553           JUNCTION        0.67          0.975        0.215
  YS02006556           JUNCTION        0.55          0.905        0.445
  YS02006558           JUNCTION        0.54          0.890        0.510
  YS02006561           JUNCTION        0.25          0.151        0.999
  YS02163301           JUNCTION        0.83          0.926        0.104
  YS02163601           JUNCTION        0.89          1.051        0.029
  YS02164001           JUNCTION        0.79          0.973        0.127
  
  
  *********************
  Node Flooding Summary
  *********************
  
  Flooding refers to all water that overflows a node, whether it ponds or not.
  --------------------------------------------------------------------------
                                                             Total   Maximum
                                 Maximum   Time of Max       Flood    Ponded
                        Hours       Rate    Occurrence      Volume     Depth
  Node                 Flooded       LPS   days hr:min    10^6 ltr    Meters
  --------------------------------------------------------------------------
  WS02006228              0.01      4.02      0  02:44       0.000     0.000
  WS02006229              0.01      3.95      0  02:44       0.000     0.000
  WS02006231              0.01      3.55      0  02:44       0.000     0.000
  WS02006232              0.01      3.70      0  02:44       0.000     0.000
  WS02006234              0.01      4.94      0  02:44       0.000     0.000
  WS02006235              0.01      6.69      0  02:44       0.000     0.000
  WS02006238              0.01      5.56      0  02:44       0.000     0.000
  WS02006239              0.01      2.10      0  02:44       0.000     0.000
  WS02006240              0.01      2.34      0  02:44       0.000     0.000
  WS02006242              0.01     36.19      0  02:00       0.000     0.000
  WS02006243              0.01     31.71      0  02:02       0.000     0.000
  WS02006245              0.01      1.94      0  02:46       0.000     0.000
  WS02006247              0.01      2.30      0  02:46       0.000     0.000
  WS02006248              0.02     40.89      0  02:02       0.001     0.000
  WS02006249              0.91     92.00      0  02:44       0.209     0.000
  WS02006252              0.01    279.04      0  03:35       0.000     0.000
  WS02006256              1.29    293.19      0  00:00       0.430     0.000
  YS02001580              0.01     34.18      0  02:04       0.000     0.000
  YS02001586              0.39    297.59      0  02:15       0.209     0.000
  YS02001590              0.01      6.24      0  02:04       0.000     0.000
  YS02001600              0.01      2.37      0  02:04       0.000     0.000
  YS02001601              0.57    948.80      0  02:14       0.960     0.000
  YS02001602              0.46     62.01      0  02:17       0.094     0.000
  YS02001605              0.01      0.10      0  02:16       0.000     0.000
  YS02001610              0.41    529.05      0  02:15       0.413     0.000
  YS02001616              0.01      0.88      0  02:14       0.000     0.000
  YS02001625              0.39   1167.88      0  02:14       0.835     0.000
  YS02001629              0.07     57.78      0  02:10       0.008     0.000
  YS02001644              0.14    550.19      0  02:13       0.155     0.000
  YS02001770              0.01      9.93      0  02:10       0.000     0.000
  YS02001779              0.11    211.39      0  02:13       0.045     0.000
  YS02001890              0.11    123.18      0  02:13       0.024     0.000
  YS02001907              0.23   1259.92      0  02:14       0.588     0.000
  YS02001915              0.01      3.41      0  02:10       0.000     0.000
  YS02001918              0.01     68.32      0  02:10       0.000     0.000
  YS02001926              0.01     15.77      0  02:10       0.000     0.000
  YS02001929              0.01    264.39      0  02:10       0.001     0.000
  
  
  **********************
  Storage Volume Summary
  **********************
  
  ------------------------------------------------------------------------------------------------
                         Average    Avg   Evap  Exfil     Maximum    Max    Time of Max    Maximum
                          Volume   Pcnt   Pcnt   Pcnt      Volume   Pcnt     Occurrence    Outflow
  Storage Unit           1000 m³   Full   Loss   Loss     1000 m³   Full    days hr:min        LPS
  ------------------------------------------------------------------------------------------------
  CC-storage               2.449   38.2    0.0    0.0       4.735   73.9       0  02:34    1783.53
  JK-storage               0.163   55.8    0.0    0.0       0.213   73.1       0  02:25    2300.00
  XR-storage               0.939   65.2    0.0    0.0       1.111   77.2       0  08:00     380.00
  
  
  ***********************
  Outfall Loading Summary
  ***********************
  
  -----------------------------------------------------------
                         Flow       Avg       Max       Total
                         Freq      Flow      Flow      Volume
  Outfall Node           Pcnt       LPS       LPS    10^6 ltr
  -----------------------------------------------------------
  CC-1                  33.26    683.00    683.00       3.914
  CC-2                  30.82    683.00    683.00       3.655
  JK-1                  15.33   1000.00   1000.00       2.161
  JK-2                   0.23   1000.00   1000.00       0.048
  WSC                   99.93    389.60    746.35       9.324
  -----------------------------------------------------------
  System                35.91   3755.60   3366.23      19.102
  
  
  ********************
  Link Flow Summary
  ********************
  
  -----------------------------------------------------------------------------
                                 Maximum  Time of Max   Maximum    Max/    Max/
                                  |Flow|   Occurrence   |Veloc|    Full    Full
  Link                 Type          LPS  days hr:min     m/sec    Flow   Depth
  -----------------------------------------------------------------------------
  1                    CONDUIT    746.35     0  02:35      3.07    0.26    0.35
  WS02001211WS02001212 CONDUIT    202.35     0  03:47      0.54    0.15    0.51
  WS02001212WS02001213 CONDUIT    204.47     0  03:48      1.04    0.32    0.36
  WS02001213WS02003059 CONDUIT    209.62     0  03:48      0.47    0.35    0.67
  WS02003059WS02003060 CONDUIT    216.71     0  03:48      0.67    0.14    0.58
  WS02003060WS02003069 CONDUIT    745.05     0  02:31      1.77    0.29    0.40
  WS02003066WSF200     CONDUIT    532.81     0  02:23      2.73    0.09    0.23
  WS02003067WS02003066 CONDUIT    532.80     0  02:23      1.20    0.17    0.41
  WS02003069WS02003072 CONDUIT    744.88     0  02:34      1.51    0.36    0.45
  WS02003072WS02003073 CONDUIT    744.63     0  02:34      1.59    1.61    0.43
  WS02004138WS02004139 CONDUIT    190.84     0  00:29      2.17    0.04    0.33
  WS02004139WS02001211 CONDUIT    192.96     0  02:43      0.54    0.24    0.47
  WS02004401WS02004402 CONDUIT    536.79     0  02:22      0.97    0.64    0.86
  WS02004402WS02004403 CONDUIT    536.44     0  02:22      0.97    0.77    0.88
  WS02004403WS02004404 CONDUIT    535.61     0  02:21      0.92    0.39    0.93
  WS02004404WS02004405 CONDUIT    535.47     0  02:21      1.08    5.25    0.96
  WS02004405WS02004406 CONDUIT    535.54     0  02:21      0.99    1.06    0.95
  WS02004406WS02004407 CONDUIT    535.23     0  02:21      1.04    0.24    0.63
  WS02004407WS02004409 CONDUIT    535.02     0  02:21      1.53    0.19    0.48
  WS02004409WS02004410 CONDUIT    533.88     0  02:22      0.99    0.69    0.67
  WS02004410WS02004411 CONDUIT    533.71     0  02:22      0.94    0.73    0.68
  WS02004411WS02004412 CONDUIT    533.30     0  02:22      0.92    0.76    0.69
  WS02004412WS02004413 CONDUIT    532.82     0  02:22      0.82    0.36    0.78
  WS02004413WS02003067 CONDUIT    532.73     0  02:23      1.11    0.23    0.59
  WS02006109WS02006110 CONDUIT    655.86     0  02:44      1.31    1.26    1.00
  WS02006110WS02006113 CONDUIT    593.19     0  02:44      1.45    0.54    0.79
  WS02006111WS02006112 CONDUIT    542.78     0  03:09      1.82    0.26    0.67
  WS02006112WS02006115 CONDUIT    577.24     0  02:44      0.81    0.34    0.87
  WS02006113WS02006111 CONDUIT    565.21     0  02:44      2.49    0.68    0.46
  WS02006115WS02006116 CONDUIT    551.72     0  02:45      0.97    0.71    0.76
  WS02006116WS02004401 CONDUIT    542.68     0  02:45      0.98    0.75    0.84
  WS02006228WS02006109 CONDUIT    647.08     0  02:44      1.29    2.83    1.00
  WS02006229WS02006228 CONDUIT    617.05     0  02:44      1.23    2.04    1.00
  WS02006230WS02006229 CONDUIT    608.78     0  02:44      1.58   13.55    1.00
  WS02006231WS02006230 CONDUIT    587.98     0  03:26      1.60    8.92    1.00
  WS02006232WS02006231 CONDUIT    575.72     0  02:06      1.52    1.21    1.00
  WS02006234WS02006232 CONDUIT    575.11     0  02:06      1.49    1.16    1.00
  WS02006235WS02006234 CONDUIT    570.89     0  02:06      1.48    6.02    1.00
  WS02006238WS02006235 CONDUIT    463.61     0  03:25      1.56    1.03    1.00
  WS02006239WS02006238 CONDUIT    428.94     0  03:25      1.11    1.37    1.00
  WS02006240WS02006239 CONDUIT    427.97     0  03:25      1.24    1.35    1.00
  WS02006242WS02006240 CONDUIT    425.46     0  03:25      1.12    1.69    1.00
  WS02006243WS02006242 CONDUIT    427.48     0  03:25      1.39    0.91    1.00
  WS02006245WS02006243 CONDUIT    428.99     0  03:25      1.45    1.27    1.00
  WS02006247WS02006245 CONDUIT    430.09     0  03:25      1.44    3.41    1.00
  WS02006248WS02006247 CONDUIT    430.42     0  03:25      1.45    0.94    1.00
  WS02006249WS02006248 CONDUIT    431.85     0  03:25      1.37    2.37    1.00
  WS02006251WS02006249 CONDUIT    458.97     0  00:00      1.99    1.32    1.00
  WS02006252WS02006251 CONDUIT    408.40     0  03:26     25.11    1.50    1.00
  WS02006256WS02006235 CONDUIT    289.21     0  01:48      4.23    3.06    1.00
  WSF200WS02003060     CONDUIT    534.08     0  02:26      1.75    0.12    0.32
  YS02001580YS02001583 CONDUIT     77.49     0  02:04      0.56    0.30    1.00
  YS02001583YS02001586 CONDUIT    135.95     0  02:03      0.56    0.21    1.00
  YS02001586YS02001590 CONDUIT    317.99     0  02:14      1.26    0.56    1.00
  YS02001590YS02001593 CONDUIT    318.06     0  02:17      1.12    2.00    1.00
  YS02001593YS02001596 CONDUIT    317.98     0  02:11      1.74    0.50    1.00
  YS02001596YS02001600 CONDUIT    318.07     0  02:11      1.24    0.62    1.00
  YS02001600YS02001601 CONDUIT    318.04     0  02:11      1.12    0.55    1.00
  YS02001601YS02001602 CONDUIT    499.31     0  02:03      1.77    1.80    1.00
  YS02001602YS02001605 CONDUIT    498.66     0  02:03      1.76   10.55    1.00
  YS02001605YS02001607 CONDUIT    497.70     0  02:03      1.76    2.73    1.00
  YS02001607YS02001610 CONDUIT    499.13     0  02:02      0.64    0.47    1.00
  YS02001610YS02001613 CONDUIT    498.44     0  02:02      0.63    0.57    1.00
  YS02001613YS02001616 CONDUIT    496.04     0  02:03      0.63    0.43    1.00
  YS02001616YS02001619 CONDUIT    492.82     0  02:03      0.66    0.86    1.00
  YS02001619YS02001622 CONDUIT    913.16     0  02:06      1.17    1.35    1.00
  YS02001622YS02001625 CONDUIT    912.27     0  02:06      1.16    0.49    1.00
  YS02001625YS02001629 CONDUIT    912.68     0  02:06      1.16    0.43    1.00
  YS02001629YS02163301 CONDUIT    911.23     0  02:06      1.16    1.12    1.00
  YS02001633YS02163601 CONDUIT   1299.09     0  02:06      1.65    1.36    1.00
  YS02001641YS02001644 CONDUIT   1295.62     0  02:06      1.65    4.19    1.00
  YS02001644YS02001647 CONDUIT   1644.40     0  02:06      2.13    0.97    1.00
  YS02001647YS02001649 CONDUIT   1653.85     0  02:06      2.26    0.87    1.00
  YS02001649YS02001757 CONDUIT   1798.59     0  02:05      2.34    1.09    1.00
  YS02001652YS02001649 CONDUIT    734.38     0  02:13      0.94    0.36    1.00
  YS02001655YS02001652 CONDUIT    733.36     0  02:13      1.26    0.36    1.00
  YS02001658YS02001655 CONDUIT    732.24     0  02:13      1.84    0.31    1.00
  YS02001661YS02001658 CONDUIT    731.63     0  02:13      2.19    0.29    1.00
  YS02001664YS02001661 CONDUIT    848.82     0  02:13      2.12    0.27    0.72
  YS02001745YS02001748 CONDUIT    506.59     0  02:10      1.99    0.20    0.87
  YS02001748YS02001751 CONDUIT    424.08     0  02:13      1.57    0.21    1.00
  YS02001751YS02001754 CONDUIT    423.86     0  02:13      1.38    0.20    1.00
  YS02001754YS02001757 CONDUIT    423.87     0  02:13      0.54    0.17    1.00
  YS02001757CaochengTiaoxuchi CONDUIT   3021.81     0  02:12      3.85    1.31    1.00
  YS02001759YS02001757 CONDUIT   1236.45     0  02:12      1.57    0.88    1.00
  YS02001762YS02001759 CONDUIT    679.46     0  02:11      0.87    0.78    1.00
  YS02001765YS02001762 CONDUIT    678.66     0  02:11      0.86    0.64    1.00
  YS02001767YS02001765 CONDUIT    680.23     0  02:11      0.87    0.86    1.00
  YS02001770YS02001767 CONDUIT    679.67     0  02:11      0.87    2.69    1.00
  YS02001774YS02001770 CONDUIT    278.70     0  02:07      0.35    0.18    1.00
  YS02001779YS02001774 CONDUIT    282.08     0  02:07      0.36    0.14    1.00
  YS02001783YS02001784 CONDUIT   1157.04     0  02:12      2.30    1.59    1.00
  YS02001784YS02001785 CONDUIT   1158.07     0  02:13      2.30    2.70    1.00
  YS02001786YS02001788 CONDUIT   1159.46     0  02:13      2.47    2.23    0.89
  YS02001788YS02001790 CONDUIT   1171.40     0  02:13      2.71    0.86    0.84
  YS02001790YS02001791 CONDUIT   1286.67     0  02:12      3.45    1.40    0.70
  YS02001791YS02001793 CONDUIT   1243.34     0  02:13      6.66    0.53    0.45
  YS02001793JiankangQianchi CONDUIT   1261.91     0  02:09      2.53    0.10    0.65
  YS02001882YS02001884 CONDUIT     31.39     0  02:07      0.13    0.04    1.00
  YS02001884YS02001887 CONDUIT     56.61     0  02:06      0.10    0.08    1.00
  YS02001887YS02001890 CONDUIT    632.25     0  02:13      0.81    1.08    1.00
  YS02001890YS02001895 CONDUIT    515.95     0  02:15      0.66    0.24    1.00
  YS02001895YS02001898 CONDUIT    516.26     0  02:15      0.66    0.90    1.00
  YS02001898YS02001901 CONDUIT    516.08     0  02:15      0.66    0.33    1.00
  YS02001901YS02001904 CONDUIT    516.58     0  02:15      0.66    0.80    1.00
  YS02001904YS02001907 CONDUIT    516.05     0  02:15      0.66    0.18    1.00
  YS02001907YS02006553 CONDUIT    793.14     0  02:24      0.88    0.93    1.00
  YS02001910YS02001907 CONDUIT   1092.74     0  02:14      1.39    0.62    1.00
  YS02001915YS02001910 CONDUIT   1092.06     0  02:14      1.39    0.54    1.00
  YS02001918YS02001915 CONDUIT    442.06     0  02:10      0.56    0.24    1.00
  YS02001920YS02001918 CONDUIT    441.53     0  02:10      0.64    0.43    1.00
  YS02001923YS02001920 CONDUIT    437.21     0  02:10      0.71    0.20    1.00
  YS02001926YS02001923 CONDUIT    403.93     0  02:14      0.96    0.58    1.00
  YS02001929YS02001926 CONDUIT    387.39     0  02:14      1.12    0.18    1.00
  YS02006553YS02006556 CONDUIT    794.45     0  02:25      1.01    0.68    1.00
  YS02006556YS02006558 CONDUIT    796.70     0  02:25      1.01    0.63    1.00
  YS02006558YS02006561 CONDUIT   1156.87     0  02:12      4.09    2.56    1.00
  YS02006561YS02001783 CONDUIT   1157.04     0  02:12      2.30    0.60    1.00
  YS02163301YS02001633 CONDUIT    911.22     0  02:06      1.16    0.86    1.00
  YS02163601YS02164001 CONDUIT   1298.77     0  02:06      1.65    1.15    1.00
  YS02164001YS02001641 CONDUIT   1297.03     0  02:06      1.65    1.77    1.00
  CC-R1                PUMP       683.00     0  00:00              1.00
  CC-R2                PUMP       683.00     0  00:00              1.00
  CC-S1                PUMP       200.00     0  00:00              1.00
  CC-S2                PUMP       200.00     0  00:00              1.00
  JK-R1                PUMP      1000.00     0  00:00              1.00
  JK-R2                PUMP      1000.00     0  00:00              1.00
  JK-S                 PUMP       300.00     0  00:00              1.00
  XR-1                 PUMP        95.00     0  00:00              1.00
  XR-2                 PUMP        95.00     0  00:00              1.00
  XR-3                 PUMP        95.00     0  00:00              1.00
  XR-4                 PUMP        95.00     0  00:00              1.00
  
  
  ***************************
  Flow Classification Summary
  ***************************
  
  -------------------------------------------------------------------------------------
                      Adjusted    ---------- Fraction of Time in Flow Class ---------- 
                       /Actual         Up    Down  Sub   Sup   Up    Down  Norm  Inlet 
  Conduit               Length    Dry  Dry   Dry   Crit  Crit  Crit  Crit  Ltd   Ctrl  
  -------------------------------------------------------------------------------------
  1                       1.00   0.00  0.00  0.00  0.00  1.00  0.00  0.00  0.16  0.00
  WS02001211WS02001212    1.00   0.00  0.02  0.00  0.98  0.00  0.00  0.00  0.00  0.00
  WS02001212WS02001213    1.00   0.02  0.00  0.00  0.21  0.00  0.76  0.00  0.00  0.00
  WS02001213WS02003059    1.00   0.00  0.01  0.00  0.99  0.00  0.00  0.00  0.00  0.00
  WS02003059WS02003060    1.00   0.00  0.00  0.00  1.00  0.00  0.00  0.00  0.03  0.00
  WS02003060WS02003069    1.00   0.00  0.00  0.00  0.98  0.02  0.00  0.00  0.66  0.00
  WS02003066WSF200        1.00   0.13  0.00  0.00  0.00  0.87  0.00  0.00  0.75  0.00
  WS02003067WS02003066    1.00   0.10  0.02  0.00  0.88  0.00  0.00  0.00  0.00  0.00
  WS02003069WS02003072    1.00   0.00  0.00  0.00  1.00  0.00  0.00  0.00  0.75  0.00
  WS02003072WS02003073    1.00   0.00  0.00  0.00  0.00  0.00  0.00  1.00  0.00  0.00
  WS02004138WS02004139    1.00   0.00  0.00  0.00  0.97  0.01  0.00  0.02  0.98  0.00
  WS02004139WS02001211    1.00   0.00  0.00  0.00  0.99  0.00  0.00  0.00  0.00  0.00
  WS02004401WS02004402    1.00   0.02  0.00  0.00  0.98  0.00  0.00  0.00  0.00  0.00
  WS02004402WS02004403    1.00   0.02  0.00  0.00  0.97  0.00  0.00  0.00  0.00  0.00
  WS02004403WS02004404    1.00   0.00  0.03  0.00  0.97  0.00  0.00  0.00  0.00  0.00
  WS02004404WS02004405    1.00   0.00  0.00  0.00  1.00  0.00  0.00  0.00  0.01  0.00
  WS02004405WS02004406    1.00   0.00  0.00  0.00  1.00  0.00  0.00  0.00  0.00  0.00
  WS02004406WS02004407    1.00   0.00  0.05  0.00  0.95  0.00  0.00  0.00  0.00  0.00
  WS02004407WS02004409    1.00   0.05  0.00  0.00  0.94  0.01  0.00  0.00  0.94  0.00
  WS02004409WS02004410    1.00   0.05  0.00  0.00  0.95  0.00  0.00  0.00  0.03  0.00
  WS02004410WS02004411    1.00   0.05  0.00  0.00  0.95  0.00  0.00  0.00  0.01  0.00
  WS02004411WS02004412    1.00   0.05  0.00  0.00  0.95  0.00  0.00  0.00  0.00  0.00
  WS02004412WS02004413    1.00   0.05  0.00  0.00  0.94  0.00  0.00  0.00  0.01  0.00
  WS02004413WS02003067    1.00   0.06  0.04  0.00  0.00  0.00  0.90  0.00  0.00  0.00
  WS02006109WS02006110    1.00   0.00  0.01  0.00  0.98  0.00  0.01  0.00  0.00  0.00
  WS02006110WS02006113    1.00   0.01  0.01  0.00  0.98  0.00  0.00  0.00  0.00  0.00
  WS02006111WS02006112    1.00   0.02  0.00  0.00  0.98  0.00  0.00  0.00  0.98  0.00
  WS02006112WS02006115    1.00   0.02  0.00  0.00  0.97  0.00  0.00  0.00  0.00  0.00
  WS02006113WS02006111    1.00   0.02  0.00  0.00  0.00  0.98  0.00  0.00  0.09  0.00
  WS02006115WS02006116    1.00   0.02  0.00  0.00  0.97  0.00  0.00  0.01  0.00  0.00
  WS02006116WS02004401    1.00   0.02  0.00  0.00  0.98  0.00  0.00  0.00  0.00  0.00
  WS02006228WS02006109    1.00   0.00  0.00  0.00  1.00  0.00  0.00  0.00  0.00  0.00
  WS02006229WS02006228    1.00   0.00  0.00  0.00  0.99  0.00  0.00  0.01  0.00  0.00
  WS02006230WS02006229    1.00   0.00  0.00  0.00  0.99  0.00  0.00  0.01  0.02  0.00
  WS02006231WS02006230    1.00   0.00  0.00  0.00  0.21  0.00  0.79  0.00  0.00  0.00
  WS02006232WS02006231    1.00   0.00  0.00  0.00  0.98  0.00  0.01  0.00  0.00  0.00
  WS02006234WS02006232    1.00   0.00  0.00  0.00  1.00  0.00  0.00  0.00  0.29  0.00
  WS02006235WS02006234    1.00   0.00  0.00  0.00  0.65  0.00  0.35  0.00  0.00  0.00
  WS02006238WS02006235    1.00   0.00  0.00  0.00  1.00  0.00  0.00  0.00  0.00  0.00
  WS02006239WS02006238    1.00   0.00  0.00  0.00  1.00  0.00  0.00  0.00  0.45  0.00
  WS02006240WS02006239    1.00   0.00  0.00  0.00  0.46  0.00  0.00  0.54  0.02  0.00
  WS02006242WS02006240    1.00   0.00  0.00  0.00  1.00  0.00  0.00  0.00  0.00  0.00
  WS02006243WS02006242    1.00   0.00  0.00  0.00  0.99  0.00  0.00  0.01  0.71  0.00
  WS02006245WS02006243    1.00   0.00  0.00  0.00  0.50  0.00  0.00  0.50  0.01  0.00
  WS02006247WS02006245    1.00   0.00  0.00  0.00  0.98  0.00  0.00  0.02  0.00  0.00
  WS02006248WS02006247    1.00   0.00  0.00  0.00  0.99  0.00  0.00  0.01  0.26  0.00
  WS02006249WS02006248    1.00   0.00  0.00  0.00  0.32  0.00  0.68  0.00  0.00  0.00
  WS02006251WS02006249    1.00   0.00  0.00  0.00  0.99  0.01  0.00  0.00  0.72  0.00
  WS02006252WS02006251    1.00   0.00  0.71  0.00  0.12  0.00  0.17  0.00  0.00  0.00
  WS02006256WS02006235    1.00   0.00  0.00  0.00  0.99  0.01  0.00  0.00  0.00  0.00
  WSF200WS02003060        1.00   0.00  0.13  0.00  0.68  0.20  0.00  0.00  0.66  0.00
  YS02001580YS02001583    1.00   0.25  0.57  0.00  0.18  0.00  0.00  0.00  0.66  0.00
  YS02001583YS02001586    1.00   0.48  0.29  0.00  0.23  0.00  0.00  0.00  0.66  0.00
  YS02001586YS02001590    1.00   0.13  0.00  0.00  0.41  0.04  0.00  0.43  0.35  0.00
  YS02001590YS02001593    1.00   0.13  0.01  0.00  0.10  0.00  0.76  0.00  0.00  0.00
  YS02001593YS02001596    1.00   0.13  0.00  0.00  0.12  0.01  0.00  0.73  0.02  0.00
  YS02001596YS02001600    1.00   0.13  0.00  0.00  0.19  0.01  0.00  0.66  0.05  0.00
  YS02001600YS02001601    1.00   0.13  0.01  0.00  0.86  0.00  0.00  0.00  0.61  0.00
  YS02001601YS02001602    1.00   0.13  0.01  0.00  0.87  0.00  0.00  0.00  0.00  0.00
  YS02001602YS02001605    1.00   0.13  0.00  0.00  0.87  0.00  0.00  0.00  0.00  0.00
  YS02001605YS02001607    1.00   0.14  0.00  0.00  0.86  0.00  0.00  0.00  0.00  0.00
  YS02001607YS02001610    1.00   0.13  0.01  0.00  0.86  0.00  0.00  0.00  0.01  0.00
  YS02001610YS02001613    1.00   0.13  0.00  0.00  0.87  0.00  0.00  0.00  0.00  0.00
  YS02001613YS02001616    1.00   0.13  0.00  0.00  0.87  0.00  0.00  0.00  0.00  0.00
  YS02001616YS02001619    1.00   0.13  0.00  0.00  0.87  0.00  0.00  0.00  0.00  0.00
  YS02001619YS02001622    1.00   0.13  0.00  0.00  0.87  0.00  0.00  0.00  0.34  0.00
  YS02001622YS02001625    1.00   0.13  0.00  0.00  0.87  0.00  0.00  0.00  0.04  0.00
  YS02001625YS02001629    1.00   0.13  0.05  0.00  0.15  0.00  0.67  0.00  0.00  0.00
  YS02001629YS02163301    1.00   0.15  0.01  0.00  0.84  0.00  0.00  0.00  0.00  0.00
  YS02001633YS02163601    1.00   0.00  0.01  0.00  0.99  0.00  0.00  0.00  0.15  0.00
  YS02001641YS02001644    1.00   0.00  0.01  0.00  0.99  0.00  0.00  0.00  0.00  0.00
  YS02001644YS02001647    1.00   0.00  0.17  0.00  0.83  0.00  0.00  0.00  0.00  0.00
  YS02001647YS02001649    1.00   0.00  0.17  0.00  0.56  0.27  0.00  0.00  0.58  0.00
  YS02001649YS02001757    1.00   0.00  0.00  0.00  0.70  0.29  0.00  0.00  0.51  0.00
  YS02001652YS02001649    1.00   0.00  0.00  0.00  0.97  0.03  0.00  0.00  0.76  0.00
  YS02001655YS02001652    1.00   0.00  0.00  0.00  0.17  0.01  0.00  0.81  0.05  0.00
  YS02001658YS02001655    1.00   0.00  0.14  0.00  0.67  0.19  0.00  0.00  0.70  0.00
  YS02001661YS02001658    1.00   0.14  0.00  0.00  0.53  0.33  0.00  0.00  0.72  0.00
  YS02001664YS02001661    1.00   0.13  0.00  0.00  0.77  0.10  0.00  0.00  0.86  0.00
  YS02001745YS02001748    1.00   0.00  0.00  0.00  0.09  0.01  0.00  0.91  0.04  0.00
  YS02001748YS02001751    1.00   0.00  0.00  0.00  0.83  0.17  0.00  0.00  0.76  0.00
  YS02001751YS02001754    1.00   0.00  0.00  0.00  0.15  0.01  0.00  0.85  0.03  0.00
  YS02001754YS02001757    1.00   0.00  0.00  0.00  1.00  0.00  0.00  0.00  0.84  0.00
  YS02001757CaochengTiaoxuchi    1.00   0.00  0.00  0.00  1.00  0.00  0.00  0.00  0.83  0.00
  YS02001759YS02001757    1.00   0.00  0.00  0.00  0.99  0.01  0.00  0.00  0.62  0.00
  YS02001762YS02001759    1.00   0.00  0.00  0.00  1.00  0.00  0.00  0.00  0.04  0.00
  YS02001765YS02001762    1.00   0.00  0.00  0.00  1.00  0.00  0.00  0.00  0.73  0.00
  YS02001767YS02001765    1.00   0.00  0.00  0.00  1.00  0.00  0.00  0.00  0.00  0.00
  YS02001770YS02001767    1.00   0.00  0.00  0.00  1.00  0.00  0.00  0.00  0.00  0.00
  YS02001774YS02001770    1.00   0.00  0.13  0.00  0.61  0.00  0.26  0.00  0.03  0.00
  YS02001779YS02001774    1.00   0.00  0.00  0.00  1.00  0.00  0.00  0.00  0.77  0.00
  YS02001783YS02001784    1.00   0.00  0.18  0.00  0.82  0.00  0.00  0.00  0.57  0.00
  YS02001784YS02001785    1.00   0.00  0.00  0.00  1.00  0.00  0.00  0.00  0.16  0.00
  YS02001786YS02001788    1.00   0.00  0.00  0.00  0.79  0.21  0.00  0.00  0.00  0.00
  YS02001788YS02001790    1.00   0.00  0.00  0.00  0.20  0.80  0.00  0.00  0.81  0.00
  YS02001790YS02001791    1.00   0.00  0.00  0.00  0.01  0.99  0.00  0.00  0.17  0.00
  YS02001791YS02001793    1.00   0.00  0.00  0.00  0.00  1.00  0.00  0.00  0.01  0.00
  YS02001793JiankangQianchi    1.00   0.00  0.00  0.00  0.99  0.00  0.00  0.00  0.96  0.00
  YS02001882YS02001884    1.00   0.15  0.01  0.00  0.84  0.00  0.00  0.00  0.00  0.00
  YS02001884YS02001887    1.00   0.06  0.05  0.00  0.89  0.00  0.00  0.00  0.00  0.00
  YS02001887YS02001890    1.00   0.00  0.00  0.00  0.97  0.00  0.03  0.00  0.00  0.00
  YS02001890YS02001895    1.00   0.00  0.16  0.00  0.84  0.00  0.00  0.00  0.00  0.00
  YS02001895YS02001898    1.00   0.16  0.00  0.00  0.82  0.00  0.02  0.00  0.00  0.00
  YS02001898YS02001901    1.00   0.16  0.00  0.00  0.84  0.00  0.00  0.00  0.01  0.00
  YS02001901YS02001904    1.00   0.16  0.00  0.00  0.84  0.00  0.00  0.00  0.00  0.00
  YS02001904YS02001907    1.00   0.00  0.16  0.00  0.84  0.00  0.00  0.00  0.00  0.00
  YS02001907YS02006553    1.00   0.00  0.02  0.00  0.98  0.00  0.00  0.00  0.00  0.00
  YS02001910YS02001907    1.00   0.00  0.00  0.00  0.97  0.00  0.00  0.03  0.12  0.00
  YS02001915YS02001910    1.00   0.00  0.00  0.00  0.97  0.03  0.00  0.00  0.15  0.00
  YS02001918YS02001915    1.00   0.00  0.01  0.00  0.98  0.02  0.00  0.00  0.76  0.00
  YS02001920YS02001918    1.00   0.00  0.01  0.00  0.99  0.00  0.00  0.00  0.00  0.00
  YS02001923YS02001920    1.00   0.00  0.00  0.00  1.00  0.00  0.00  0.00  0.94  0.00
  YS02001926YS02001923    1.00   0.00  0.07  0.00  0.05  0.00  0.88  0.00  0.00  0.00
  YS02001929YS02001926    1.00   0.00  0.13  0.00  0.87  0.00  0.00  0.00  0.83  0.00
  YS02006553YS02006556    1.00   0.01  0.00  0.00  0.99  0.00  0.00  0.00  0.03  0.00
  YS02006556YS02006558    1.00   0.00  0.00  0.00  1.00  0.00  0.00  0.00  0.00  0.00
  YS02006558YS02006561    1.00   0.18  0.00  0.00  0.04  0.78  0.00  0.00  0.18  0.00
  YS02006561YS02001783    1.00   0.18  0.00  0.00  0.07  0.75  0.00  0.00  0.70  0.00
  YS02163301YS02001633    1.00   0.00  0.15  0.00  0.85  0.00  0.00  0.00  0.00  0.00
  YS02163601YS02164001    1.00   0.00  0.08  0.00  0.92  0.00  0.00  0.00  0.00  0.00
  YS02164001YS02001641    1.00   0.01  0.07  0.00  0.92  0.00  0.00  0.00  0.05  0.00
  
  
  *************************
  Conduit Surcharge Summary
  *************************
  
  ----------------------------------------------------------------------------
                                                           Hours        Hours 
                         --------- Hours Full --------   Above Full   Capacity
  Conduit                Both Ends  Upstream  Dnstream   Normal Flow   Limited
  ----------------------------------------------------------------------------
  WS02003072WS02003073        0.01      0.01      0.01      1.71         0.01
  WS02004404WS02004405        0.01      0.01      0.01      1.98         0.01
  WS02004405WS02004406        0.01      0.01      0.01      0.69         0.01
  WS02006109WS02006110        0.61      0.61      1.58      0.81         0.01
  WS02006110WS02006113        0.01      0.01      1.56      0.01         0.01
  WS02006111WS02006112        0.01      0.01      1.68      0.01         0.01
  WS02006112WS02006115        0.01      0.01      0.80      0.01         0.01
  WS02006228WS02006109        1.54      1.57      1.54      1.79         1.54
  WS02006229WS02006228        1.54      1.54      1.54      1.70         1.52
  WS02006230WS02006229        1.64      1.68      1.64      2.75         1.64
  WS02006231WS02006230        0.62      0.62      0.93      2.34         0.01
  WS02006232WS02006231        0.84      0.84      1.57      0.93         0.01
  WS02006234WS02006232        1.46      1.46      1.57      0.92         0.90
  WS02006235WS02006234        1.24      1.25      1.46      2.17         0.03
  WS02006238WS02006235        1.49      1.49      1.57      0.01         0.01
  WS02006239WS02006238        1.53      1.56      1.53      1.61         1.32
  WS02006240WS02006239        1.51      1.54      1.51      1.61         1.21
  WS02006242WS02006240        1.53      1.53      1.59      1.65         0.01
  WS02006243WS02006242        1.54      1.54      1.58      0.01         0.07
  WS02006245WS02006243        1.53      1.54      1.53      0.89         0.87
  WS02006247WS02006245        1.53      1.56      1.53      1.87         1.51
  WS02006248WS02006247        1.54      1.54      1.55      0.01         0.08
  WS02006249WS02006248        1.53      1.53      1.55      1.85         0.01
  WS02006251WS02006249        1.55      1.55      1.55      1.64         1.44
  WS02006252WS02006251        1.71      1.71      1.71      1.72         0.01
  WS02006256WS02006235        2.18      2.24      4.36      1.29         0.01
  YS02001580YS02001583        0.52      0.52      0.56      0.01         0.01
  YS02001583YS02001586        0.53      0.53      0.64      0.01         0.01
  YS02001586YS02001590        0.65      0.65      0.71      0.01         0.01
  YS02001590YS02001593        0.72      0.72      0.73      0.74         0.01
  YS02001593YS02001596        0.73      0.73      0.83      0.01         0.01
  YS02001596YS02001600        0.89      0.89      1.00      0.01         0.01
  YS02001600YS02001601        1.07      1.07      1.37      0.01         0.01
  YS02001601YS02001602        1.26      1.26      1.40      0.99         0.01
  YS02001602YS02001605        1.21      1.21      1.26      2.19         0.01
  YS02001605YS02001607        1.15      1.21      1.15      1.33         1.15
  YS02001607YS02001610        0.70      0.70      0.73      0.01         0.01
  YS02001610YS02001613        0.69      0.69      0.73      0.01         0.01
  YS02001613YS02001616        0.65      0.65      0.69      0.01         0.01
  YS02001616YS02001619        0.64      0.64      0.65      0.01         0.01
  YS02001619YS02001622        0.64      0.64      0.64      0.71         0.61
  YS02001622YS02001625        0.64      0.64      0.82      0.01         0.01
  YS02001625YS02001629        0.60      0.60      0.82      0.01         0.01
  YS02001629YS02163301        0.82      0.82      0.83      0.06         0.13
  YS02001633YS02163601        0.85      0.85      0.89      0.29         0.28
  YS02001641YS02001644        0.76      0.79      0.76      1.45         0.75
  YS02001644YS02001647        0.56      0.56      0.76      0.01         0.01
  YS02001647YS02001649        0.56      0.56      0.68      0.01         0.01
  YS02001649YS02001757        0.68      0.68      0.75      0.06         0.04
  YS02001652YS02001649        0.52      0.52      0.68      0.01         0.01
  YS02001655YS02001652        0.35      0.35      0.49      0.01         0.01
  YS02001658YS02001655        0.17      0.17      0.35      0.01         0.01
  YS02001661YS02001658        0.01      0.01      0.17      0.01         0.01
  YS02001664YS02001661        0.01      0.01      0.02      0.01         0.01
  YS02001745YS02001748        0.01      0.01      0.11      0.01         0.01
  YS02001748YS02001751        0.15      0.15      0.25      0.01         0.01
  YS02001751YS02001754        0.25      0.25      0.42      0.01         0.01
  YS02001754YS02001757        0.45      0.45      0.75      0.01         0.01
  YS02001757CaochengTiaoxuchi        0.75      0.75      1.34      0.26         0.26
  YS02001759YS02001757        0.66      0.66      0.75      0.01         0.01
  YS02001762YS02001759        0.63      0.63      0.66      0.01         0.02
  YS02001765YS02001762        0.59      0.59      0.63      0.01         0.01
  YS02001767YS02001765        0.55      0.55      0.59      0.01         0.02
  YS02001770YS02001767        0.55      0.55      0.55      0.36         0.35
  YS02001774YS02001770        0.53      0.53      0.60      0.01         0.01
  YS02001779YS02001774        0.40      0.40      0.60      0.01         0.01
  YS02001783YS02001784        0.40      0.42      0.40      0.58         0.40
  YS02001784YS02001785        0.30      0.40      0.30      0.82         0.30
  YS02001786YS02001788        0.01      0.30      0.01      0.69         0.01
  YS02001790YS02001791        0.01      0.01      0.01      0.39         0.01
  YS02001793JiankangQianchi        0.01      0.01      7.70      0.01         0.01
  YS02001882YS02001884        0.37      0.37      0.38      0.01         0.01
  YS02001884YS02001887        0.41      0.41      0.41      0.01         0.01
  YS02001887YS02001890        0.43      0.43      0.44      0.04         0.01
  YS02001890YS02001895        0.36      0.36      0.46      0.01         0.01
  YS02001895YS02001898        0.35      0.35      0.36      0.01         0.01
  YS02001898YS02001901        0.36      0.36      0.40      0.01         0.01
  YS02001901YS02001904        0.39      0.39      0.40      0.01         0.01
  YS02001904YS02001907        0.39      0.39      0.67      0.01         0.01
  YS02001907YS02006553        0.83      0.83      0.90      0.01         0.01
  YS02001910YS02001907        0.45      0.45      0.65      0.01         0.01
  YS02001915YS02001910        0.37      0.37      0.45      0.01         0.01
  YS02001918YS02001915        0.29      0.29      0.37      0.01         0.01
  YS02001920YS02001918        0.29      0.29      0.30      0.01         0.01
  YS02001923YS02001920        0.24      0.24      0.30      0.01         0.01
  YS02001926YS02001923        0.01      0.01      0.03      0.01         0.01
  YS02001929YS02001926        0.01      0.01      0.03      0.01         0.01
  YS02006553YS02006556        0.55      0.55      0.67      0.01         0.01
  YS02006556YS02006558        0.61      0.61      0.68      0.01         0.01
  YS02006558YS02006561        0.32      0.54      0.32      0.77         0.32
  YS02006561YS02001783        0.25      0.25      0.42      0.01         0.01
  YS02163301YS02001633        0.83      0.83      0.87      0.01         0.01
  YS02163601YS02164001        0.79      0.79      0.89      0.07         0.01
  YS02164001YS02001641        0.79      0.79      0.79      0.65         0.57
  
  
  ***************
  Pumping Summary
  ***************
  
  ---------------------------------------------------------------------------------------------------------
                                                  Min       Avg       Max     Total     Power    % Time Off
                        Percent   Number of      Flow      Flow      Flow    Volume     Usage    Pump Curve
  Pump                 Utilized   Start-Ups       LPS       LPS       LPS  10^6 ltr     Kw-hr    Low   High
  ---------------------------------------------------------------------------------------------------------
  CC-R1                   19.89          14      0.00    683.00    683.00     3.912     72.52    0.0   23.4
  CC-R2                   18.57          14      0.00    683.00    683.00     3.653     67.72    0.0   25.0
  CC-S1                   23.88          14      0.00    200.00    200.00     1.375      7.85    0.0    0.0
  CC-S2                   21.44          14      0.00    200.00    200.00     1.235      7.00    0.0    0.0
  JK-R1                    7.50          13      0.00   1000.00   1000.00     2.159     25.88    0.0    0.0
  JK-R2                    0.16           1      0.00   1000.00   1000.00     0.047      0.36    0.0    0.0
  JK-S                    16.14          25      0.00    300.00    300.00     1.395     18.19    0.0    0.0
  XR-1                    97.91           2      0.00     95.00     95.00     2.679      9.60    0.0    0.0
  XR-2                    93.94           2      0.00     95.00     95.00     2.570      8.76    0.0    0.0
  XR-3                     0.00           1      0.00     95.00     95.00     0.000      0.00    0.0    0.0
  XR-4                     0.00           1      0.00     95.00     95.00     0.000      0.00    0.0    0.0
  

  Analysis begun on:  Wed Nov  5 16:30:55 2025
  Analysis ended on:  Wed Nov  5 16:30:57 2025
  Total elapsed time: 00:00:02