
  EPA STORM WATER MANAGEMENT MODEL - VERSION 5.2 (Build 5.2.4)
  PYSWMM TOOLKIT API - VERSION v1.0 (2023-11-27)
  ------------------------------------------------------------

  WARNING 04: minimum elevation drop used for Conduit WS02004404WS02004405
  WARNING 03: negative offset ignored for Link YS02001904YS02001907
  
  ****************
  Analysis Options
  ****************
  Flow Units ............... LPS
  Process Models:
    Rainfall/Runoff ........ YES
    RDII ................... NO
    Snowmelt ............... NO
    Groundwater ............ NO
    Flow Routing ........... YES
    Ponding Allowed ........ NO
    Water Quality .......... NO
  Infiltration Method ...... HORTON
  Flow Routing Method ...... DYNWAVE
  Surcharge Method ......... EXTRAN
  Starting Date ............ 08/28/2015 08:00:00
  Ending Date .............. 08/28/2015 16:00:00
  Antecedent Dry Days ...... 8.0
  Report Time Step ......... 00:01:00
  Wet Time Step ............ 00:01:00
  Dry Time Step ............ 00:01:00
  Routing Time Step ........ 30.00 sec
  Variable Time Step ....... YES
  Maximum Trials ........... 8
  Number of Threads ........ 4
  Head Tolerance ........... 0.001500 m
  
  
  **************************        Volume         Depth
  Runoff Quantity Continuity     hectare-m            mm
  **************************     ---------       -------
  Initial LID Storage ......         0.049         1.488
  Total Precipitation ......         2.566        77.347
  Evaporation Loss .........         0.000         0.000
  Infiltration Loss ........         0.078         2.349
  Surface Runoff ...........         1.922        57.929
  Final Storage ............         0.616        18.577
  Continuity Error (%) .....        -0.025
  
  
  **************************        Volume        Volume
  Flow Routing Continuity        hectare-m      10^6 ltr
  **************************     ---------     ---------
  Dry Weather Inflow .......         0.602         6.020
  Wet Weather Inflow .......         1.921        19.214
  Groundwater Inflow .......         0.000         0.000
  RDII Inflow ..............         0.000         0.000
  External Inflow ..........         0.105         1.045
  External Outflow .........         2.004        20.038
  Flooding Loss ............         0.596         5.964
  Evaporation Loss .........         0.000         0.000
  Exfiltration Loss ........         0.000         0.000
  Initial Stored Volume ....         0.303         3.031
  Final Stored Volume ......         0.337         3.369
  Continuity Error (%) .....        -0.205
  
  
  *************************
  Highest Continuity Errors
  *************************
  Node YS02001583 (-6.37%)
  Node YS02001884 (5.26%)
  
  
  ***************************
  Time-Step Critical Elements
  ***************************
  Link WS02004404WS02004405 (46.73%)
  Link WS02006238WS02006235 (13.93%)
  Link YS02001791YS02001793 (10.70%)
  Link WS02006252WS02006251 (7.45%)
  Link WS02003066WSF200 (3.60%)
  
  
  ********************************
  Highest Flow Instability Indexes
  ********************************
  Link WS02006113WS02006111 (29)
  Link WS02004404WS02004405 (23)
  Link WS02004403WS02004404 (21)
  Link WS02006252WS02006251 (21)
  Link WS02004405WS02004406 (19)
  
  
  *********************************
  Most Frequent Nonconverging Nodes
  *********************************
  Node CC-1 (18.94%)
  Node CC-2 (18.94%)
  Node JK-1 (18.94%)
  Node JK-2 (18.94%)
  Node WSC (18.94%)
  
  
  *************************
  Routing Time Step Summary
  *************************
  Minimum Time Step           :     0.01 sec
  Average Time Step           :     3.42 sec
  Maximum Time Step           :     7.04 sec
  % of Time in Steady State   :     0.00
  Average Iterations per Step :     3.63
  % of Steps Not Converging   :    18.94
  Time Step Frequencies       :
     30.000 - 13.228 sec      :     0.00 %
     13.228 -  5.833 sec      :    29.79 %
      5.833 -  2.572 sec      :    19.88 %
      2.572 -  1.134 sec      :    34.51 %
      1.134 -  0.500 sec      :    15.81 %
  
  
  ***************************
  Subcatchment Runoff Summary
  ***************************
  
  ------------------------------------------------------------------------------------------------------------------------------
                            Total      Total      Total      Total     Imperv       Perv      Total       Total     Peak  Runoff
                           Precip      Runon       Evap      Infil     Runoff     Runoff     Runoff      Runoff   Runoff   Coeff
  Subcatchment                 mm         mm         mm         mm         mm         mm         mm    10^6 ltr      LPS
  ------------------------------------------------------------------------------------------------------------------------------
  sub60                     77.35       0.00       0.00       1.41      51.61       5.76      57.37        0.75   524.99   0.742
  sub61                     77.35       0.00       0.00       2.16      51.56       8.59      60.16        1.10   765.28   0.778
  sub62                     77.35       0.00       0.00       0.96      54.97       3.91      58.89        1.61  1045.05   0.761
  sub63                     77.35       0.00       0.00       3.93      44.16      14.43      58.59        1.33   861.57   0.758
  sub64                     77.35       0.00       0.00       1.89      50.29       7.15      57.44        1.38   847.41   0.743
  sub65                     77.35       0.00       0.00       1.74      54.28       6.53      60.81        1.67   991.38   0.786
  sub66                     77.35       0.00       0.00       4.56      42.72      13.22      55.94        2.61  1276.76   0.723
  sub67                     77.35       0.00       0.00       0.95      56.36       4.04      60.40        1.12   810.75   0.781
  sub68                     77.35       0.00       0.00       1.66      49.77       6.59      56.37        1.55  1044.25   0.729
  sub69                     77.35       0.00       0.00       1.51      52.02       7.68      59.70        2.21  1283.28   0.772
  sub70                     77.35       0.00       0.00       5.04      41.69      16.49      58.18        1.68   734.59   0.752
  sub71                     77.35       0.00       0.00       0.88      49.94       3.54      53.48        1.40   857.05   0.691
  sub72                     77.35       0.00       0.00       0.84      53.95       3.30      57.25        0.79   441.27   0.740
  

  ***********************
  LID Performance Summary
  ***********************

  --------------------------------------------------------------------------------------------------------------------
                                         Total      Evap     Infil   Surface    Drain    Initial     Final  Continuity
                                        Inflow      Loss      Loss   Outflow   Outflow   Storage   Storage       Error
  Subcatchment      LID Control             mm        mm        mm        mm        mm        mm        mm           %
  --------------------------------------------------------------------------------------------------------------------
  sub60             GreenRoof            77.35      0.00      0.00      0.00      0.00      7.05     84.42       -0.02
  sub61             GreenRoof            77.35      0.00      0.00      0.00      0.00      7.05     84.42       -0.02
  sub62             GreenRoof            77.35      0.00      0.00      0.00      0.00      7.05     84.42       -0.02
  sub63             GreenRoof            77.35      0.00      0.00      0.00      0.00      7.05     84.42       -0.02
  sub64             GreenRoof            77.35      0.00      0.00      0.00      0.00      7.05     84.42       -0.02
  sub65             GreenRoof            77.35      0.00      0.00      0.00      0.00      7.05     84.42       -0.02
  sub66             GreenRoof            77.35      0.00      0.00      0.00      0.00      7.05     84.42       -0.02
  sub67             GreenRoof            77.35      0.00      0.00      0.00      0.00      7.05     84.42       -0.02
  sub68             GreenRoof            77.35      0.00      0.00      0.00      0.00      7.05     84.42       -0.02
  sub69             GreenRoof            77.35      0.00      0.00      0.00      0.00      7.05     84.42       -0.02
  sub70             GreenRoof            77.35      0.00      0.00      0.00      0.00      7.05     84.42       -0.02
  sub71             GreenRoof            77.35      0.00      0.00      0.00      0.00      7.05     84.42       -0.02
  sub72             GreenRoof            77.35      0.00      0.00      0.00      0.00      7.05     84.42       -0.02
  
  ******************
  Node Depth Summary
  ******************
  
  ---------------------------------------------------------------------------------
                                 Average  Maximum  Maximum  Time of Max    Reported
                                   Depth    Depth      HGL   Occurrence   Max Depth
  Node                 Type       Meters   Meters   Meters  days hr:min      Meters
  ---------------------------------------------------------------------------------
  WS02001211           JUNCTION     0.60     0.64     5.48     0  03:15        0.64
  WS02001212           JUNCTION     0.34     0.38     5.45     0  03:14        0.38
  WS02001213           JUNCTION     0.54     0.65     5.41     0  03:12        0.65
  WS02003059           JUNCTION     0.60     0.72     5.40     0  03:13        0.72
  WS02003060           JUNCTION     0.31     0.45     5.39     0  03:12        0.45
  WS02003066           JUNCTION     0.17     0.30     5.85     0  03:10        0.30
  WS02003067           JUNCTION     0.45     0.70     6.02     0  03:10        0.70
  WS02003069           JUNCTION     0.35     0.51     5.10     0  03:13        0.51
  WS02003072           JUNCTION     0.41     0.58     4.95     0  03:11        0.58
  WS02003073           JUNCTION     0.24     0.35     4.41     0  03:12        0.35
  WS02004138           JUNCTION     0.13     0.14     7.39     0  00:29        0.14
  WS02004139           JUNCTION     0.54     0.58     5.49     0  03:16        0.58
  WS02004401           JUNCTION     0.55     0.88     6.88     0  03:04        0.88
  WS02004402           JUNCTION     0.58     0.90     6.86     0  03:06        0.90
  WS02004403           JUNCTION     0.61     0.92     6.85     0  03:10        0.92
  WS02004404           JUNCTION     0.68     1.03     6.88     0  02:15        1.00
  WS02004405           JUNCTION     0.67     0.97     6.82     0  03:10        0.97
  WS02004406           JUNCTION     0.68     0.96     6.79     0  03:02        0.96
  WS02004407           JUNCTION     0.15     0.30     6.61     0  03:02        0.30
  WS02004409           JUNCTION     0.34     0.67     6.44     0  03:02        0.67
  WS02004410           JUNCTION     0.36     0.68     6.40     0  03:03        0.68
  WS02004411           JUNCTION     0.39     0.69     6.37     0  03:03        0.69
  WS02004412           JUNCTION     0.41     0.70     6.34     0  03:03        0.70
  WS02004413           JUNCTION     0.56     0.86     6.33     0  03:09        0.86
  WS02006109           JUNCTION     0.60     1.36     7.98     0  02:06        1.33
  WS02006110           JUNCTION     0.60     1.54     8.12     0  02:23        1.54
  WS02006111           JUNCTION     0.15     0.29     6.99     0  01:53        0.29
  WS02006112           JUNCTION     0.70     1.11     6.99     0  02:32        1.07
  WS02006113           JUNCTION     0.23     0.46     7.35     0  02:34        0.46
  WS02006115           JUNCTION     0.44     0.77     6.91     0  03:04        0.77
  WS02006116           JUNCTION     0.52     0.86     6.90     0  03:06        0.86
  WS02006228           JUNCTION     0.60     1.27     7.92     0  02:06        1.15
  WS02006229           JUNCTION     0.57     1.27     7.96     0  02:28        1.10
  WS02006230           JUNCTION     0.58     1.49     8.23     0  02:28        1.24
  WS02006231           JUNCTION     0.38     1.38     8.50     0  02:05        0.99
  WS02006232           JUNCTION     0.51     1.34     8.38     0  02:05        1.19
  WS02006234           JUNCTION     0.45     1.62     8.77     0  01:55        1.21
  WS02006235           JUNCTION     0.49     1.52     8.68     0  02:00        1.29
  WS02006238           JUNCTION     0.52     1.56     8.70     0  02:00        1.32
  WS02006239           JUNCTION     0.49     1.52     8.73     0  02:22        1.30
  WS02006240           JUNCTION     0.47     1.48     8.78     0  02:22        1.25
  WS02006242           JUNCTION     0.52     1.52     8.79     0  02:22        1.33
  WS02006243           JUNCTION     0.46     1.37     8.79     0  02:22        1.23
  WS02006245           JUNCTION     0.46     1.30     8.79     0  02:22        1.30
  WS02006247           JUNCTION     0.48     1.30     8.80     0  01:50        1.30
  WS02006248           JUNCTION     0.45     1.10     8.69     0  01:50        1.10
  WS02006249           JUNCTION     0.47     1.09     8.69     0  01:49        1.09
  WS02006251           JUNCTION     0.47     1.73     9.40     0  01:50        1.27
  WS02006252           JUNCTION     0.30     1.50     9.74     0  00:00        0.82
  WS02006256           JUNCTION     1.10     2.35     9.28     0  00:00        2.35
  WSF200               JUNCTION     0.15     0.31     5.54     0  03:06        0.31
  YS02001580           JUNCTION     0.15     1.05     9.59     0  01:44        0.77
  YS02001583           JUNCTION     0.18     1.14     9.64     0  01:44        0.82
  YS02001586           JUNCTION     0.29     1.13     9.30     0  01:43        1.13
  YS02001590           JUNCTION     0.41     1.40     9.26     0  01:42        1.38
  YS02001593           JUNCTION     0.34     1.41     9.27     0  01:42        1.28
  YS02001596           JUNCTION     0.48     1.68     9.10     0  01:44        1.66
  YS02001600           JUNCTION     0.58     1.87     9.00     0  01:43        1.86
  YS02001601           JUNCTION     0.77     2.06     8.90     0  01:42        2.06
  YS02001602           JUNCTION     0.67     1.87     8.77     0  01:43        1.87
  YS02001605           JUNCTION     0.62     1.78     8.68     0  01:43        1.78
  YS02001607           JUNCTION     0.58     1.65     8.50     0  02:09        1.65
  YS02001610           JUNCTION     0.62     1.68     8.48     0  01:43        1.68
  YS02001613           JUNCTION     0.58     1.70     8.54     0  01:43        1.67
  YS02001616           JUNCTION     0.51     1.61     8.52     0  01:43        1.61
  YS02001619           JUNCTION     0.49     1.61     8.54     0  01:43        1.61
  YS02001622           JUNCTION     0.48     1.62     8.52     0  01:43        1.58
  YS02001625           JUNCTION     0.73     1.78     8.38     0  01:44        1.78
  YS02001629           JUNCTION     0.63     1.85     8.40     0  01:44        1.85
  YS02001633           JUNCTION     0.70     2.08     8.53     0  01:46        2.08
  YS02001641           JUNCTION     0.67     1.96     8.40     0  01:47        1.94
  YS02001644           JUNCTION     0.66     1.92     8.35     0  01:47        1.92
  YS02001647           JUNCTION     0.44     1.81     8.42     0  01:47        1.79
  YS02001649           JUNCTION     0.50     2.05     8.44     0  01:47        2.05
  YS02001652           JUNCTION     0.38     2.00     8.59     0  01:47        1.82
  YS02001655           JUNCTION     0.29     2.07     8.92     0  01:47        1.61
  YS02001658           JUNCTION     0.20     2.13     9.27     0  01:47        1.36
  YS02001661           JUNCTION     0.20     1.63     9.04     0  01:47        1.13
  YS02001664           JUNCTION     0.08     1.00     8.93     0  01:48        0.59
  YS02001745           JUNCTION     0.10     2.07     9.58     0  01:47        1.43
  YS02001748           JUNCTION     0.19     2.27     9.35     0  01:47        1.83
  YS02001751           JUNCTION     0.24     2.20     9.08     0  01:47        1.93
  YS02001754           JUNCTION     0.33     2.20     8.81     0  01:47        2.08
  YS02001757           JUNCTION     0.52     2.21     8.47     0  01:47        2.21
  YS02001759           JUNCTION     0.46     2.20     8.56     0  01:47        2.18
  YS02001762           JUNCTION     0.45     2.15     8.55     0  01:47        2.15
  YS02001765           JUNCTION     0.42     2.10     8.55     0  01:47        2.08
  YS02001767           JUNCTION     0.42     2.03     8.52     0  01:47        2.01
  YS02001770           JUNCTION     0.43     1.95     8.44     0  01:47        1.95
  YS02001774           JUNCTION     0.49     2.00     8.43     0  01:50        2.00
  YS02001779           JUNCTION     0.31     1.68     8.37     0  01:46        1.68
  YS02001783           JUNCTION     0.33     1.32     7.46     0  01:46        1.23
  YS02001784           JUNCTION     0.33     1.19     7.26     0  01:46        1.12
  YS02001786           JUNCTION     0.28     0.92     6.95     0  01:46        0.87
  YS02001788           JUNCTION     0.20     0.62     6.60     0  01:48        0.62
  YS02001790           JUNCTION     0.24     0.73     6.37     0  01:49        0.73
  YS02001791           JUNCTION     0.15     0.44     5.91     0  01:49        0.43
  YS02001793           JUNCTION     0.08     0.31     5.14     0  01:50        0.28
  YS02001882           JUNCTION     0.40     1.69     8.41     0  01:46        1.66
  YS02001884           JUNCTION     0.49     1.78     8.40     0  01:46        1.76
  YS02001887           JUNCTION     0.56     1.84     8.38     0  01:49        1.84
  YS02001890           JUNCTION     0.59     1.81     8.32     0  01:45        1.81
  YS02001895           JUNCTION     0.37     1.59     8.34     0  01:45        1.56
  YS02001898           JUNCTION     0.37     1.58     8.32     0  01:45        1.57
  YS02001901           JUNCTION     0.48     1.69     8.29     0  01:46        1.67
  YS02001904           JUNCTION     0.46     1.64     8.27     0  01:46        1.64
  YS02001907           JUNCTION     0.78     1.96     8.25     0  01:46        1.96
  YS02001910           JUNCTION     0.58     1.98     8.48     0  01:50        1.98
  YS02001915           JUNCTION     0.40     1.92     8.63     0  01:47        1.86
  YS02001918           JUNCTION     0.22     1.81     8.88     0  01:47        1.59
  YS02001920           JUNCTION     0.30     2.14     9.15     0  01:47        1.62
  YS02001923           JUNCTION     0.17     2.03     9.29     0  01:47        1.30
  YS02001926           JUNCTION     0.20     1.90     9.35     0  01:47        1.13
  YS02001929           JUNCTION     0.12     1.78     9.47     0  01:47        0.92
  YS02006553           JUNCTION     0.78     2.00     8.29     0  01:46        1.98
  YS02006556           JUNCTION     0.75     2.02     8.33     0  01:46        1.98
  YS02006558           JUNCTION     0.79     2.06     8.33     0  01:46        2.04
  YS02006561           JUNCTION     0.20     1.00     7.66     0  01:46        0.90
  YS02163301           JUNCTION     0.65     1.97     8.48     0  01:47        1.96
  YS02163601           JUNCTION     0.73     2.08     8.48     0  01:47        2.07
  YS02164001           JUNCTION     0.66     1.99     8.45     0  01:47        1.94
  CC-1                 OUTFALL      0.00     0.00     0.00     0  00:00        0.00
  CC-2                 OUTFALL      0.00     0.00     0.00     0  00:00        0.00
  JK-1                 OUTFALL      0.00     0.00     0.00     0  00:00        0.00
  JK-2                 OUTFALL      0.00     0.00     0.00     0  00:00        0.00
  WSC                  OUTFALL      0.24     0.35     1.02     0  03:13        0.35
  CC-storage           STORAGE      0.91     1.70     7.20     0  02:19        1.70
  JK-storage           STORAGE      2.72     4.25     5.05     0  01:50        4.22
  XR-storage           STORAGE      7.80     9.26     7.26     0  08:00        9.26
  
  
  *******************
  Node Inflow Summary
  *******************
  
  -------------------------------------------------------------------------------------------------
                                  Maximum  Maximum                  Lateral       Total        Flow
                                  Lateral    Total  Time of Max      Inflow      Inflow     Balance
                                   Inflow   Inflow   Occurrence      Volume      Volume       Error
  Node                 Type           LPS      LPS  days hr:min    10^6 ltr    10^6 ltr     Percent
  -------------------------------------------------------------------------------------------------
  WS02001211           JUNCTION      7.35   200.38     0  03:25       0.212        5.44       0.611
  WS02001212           JUNCTION      0.00   202.58     0  03:25           0        5.41       0.290
  WS02001213           JUNCTION      0.00   204.30     0  03:40           0        5.39       0.331
  WS02003059           JUNCTION      0.00   210.17     0  03:39           0        5.38       0.591
  WS02003060           JUNCTION     16.53   753.25     0  03:06       0.476        9.38       0.149
  WS02003066           JUNCTION      0.00   538.56     0  03:10           0        3.56       0.034
  WS02003067           JUNCTION      0.00   538.50     0  03:10           0        3.56       0.113
  WS02003069           JUNCTION      0.32   752.85     0  03:13     0.00922        9.37       0.158
  WS02003072           JUNCTION      0.00   752.62     0  03:11           0        9.35       0.216
  WS02003073           JUNCTION      1.82   754.34     0  03:12      0.0524        9.39       0.222
  WS02004138           JUNCTION      0.00   380.00     0  00:00           0        5.25       0.053
  WS02004139           JUNCTION      0.32   191.16     0  00:29     0.00924        5.26       0.509
  WS02004401           JUNCTION      0.00   539.04     0  03:03           0        3.65       0.269
  WS02004402           JUNCTION      0.00   541.22     0  03:04           0        3.64       0.276
  WS02004403           JUNCTION      0.00   542.22     0  03:02           0        3.63       0.267
  WS02004404           JUNCTION      0.16   561.45     0  03:02     0.00467        3.63       0.161
  WS02004405           JUNCTION      0.04   604.36     0  03:02      0.0011        3.62       0.294
  WS02004406           JUNCTION      0.00   544.87     0  03:02           0        3.61       0.560
  WS02004407           JUNCTION      0.00   540.58     0  03:02           0        3.59       0.026
  WS02004409           JUNCTION      0.00   539.91     0  03:02           0        3.59       0.061
  WS02004410           JUNCTION      0.00   539.49     0  03:03           0        3.59       0.108
  WS02004411           JUNCTION      0.00   539.05     0  03:03           0        3.58       0.142
  WS02004412           JUNCTION      0.00   538.96     0  03:03           0        3.58       0.195
  WS02004413           JUNCTION      0.00   538.80     0  03:09           0        3.57       0.350
  WS02006109           JUNCTION      1.23   561.29     0  02:29      0.0354         3.7       0.224
  WS02006110           JUNCTION      0.00   561.93     0  02:29           0        3.69       0.170
  WS02006111           JUNCTION      0.00   561.76     0  02:34           0        3.68       0.020
  WS02006112           JUNCTION      0.00   543.09     0  02:52           0        3.68       0.469
  WS02006113           JUNCTION      0.00   571.03     0  02:23           0        3.68       0.040
  WS02006115           JUNCTION      0.00   549.71     0  02:30           0        3.66       0.168
  WS02006116           JUNCTION      0.00   539.48     0  02:15           0        3.66       0.093
  WS02006228           JUNCTION      0.00   560.42     0  02:29           0        3.66       0.103
  WS02006229           JUNCTION      0.00   560.00     0  02:29           0        3.67       0.103
  WS02006230           JUNCTION     10.28   592.49     0  01:55       0.296        3.67       0.120
  WS02006231           JUNCTION      0.00   576.49     0  02:16           0        3.37      -0.046
  WS02006232           JUNCTION      0.00   575.55     0  02:16           0        3.38       0.215
  WS02006234           JUNCTION      0.00   572.13     0  02:16           0        3.38      -0.155
  WS02006235           JUNCTION      0.00   565.96     0  02:16           0        3.41       0.153
  WS02006238           JUNCTION      0.00   427.27     0  02:35           0        2.42      -0.093
  WS02006239           JUNCTION      0.00   424.77     0  02:35           0         2.4      -0.049
  WS02006240           JUNCTION      0.00   420.58     0  02:15           0        2.38      -0.041
  WS02006242           JUNCTION      0.00   421.26     0  02:35           0        2.37      -0.144
  WS02006243           JUNCTION      0.00   421.61     0  02:35           0        2.36      -0.127
  WS02006245           JUNCTION      0.00   422.42     0  02:35           0        2.38       0.433
  WS02006247           JUNCTION      0.00   422.41     0  02:35           0        2.38       0.002
  WS02006248           JUNCTION      0.00   422.04     0  02:35           0        2.37      -0.108
  WS02006249           JUNCTION      0.00   458.97     0  00:00           0        2.68       0.497
  WS02006251           JUNCTION      0.08   408.06     0  01:50     0.00222        2.68       0.003
  WS02006252           JUNCTION      0.00   400.00     0  00:00           0        2.67      -0.233
  WS02006256           JUNCTION      0.00   300.00     0  00:00           0        1.51      -0.566
  WSF200               JUNCTION      0.00   538.61     0  03:10           0        3.56       0.012
  YS02001580           JUNCTION      0.00   126.59     0  01:43           0     0.00454       2.535
  YS02001583           JUNCTION      0.00   213.68     0  01:44           0      0.0154      -5.991
  YS02001586           JUNCTION    734.59   734.67     0  01:52        1.68        1.69       0.083
  YS02001590           JUNCTION      0.00   318.47     0  01:50           0        1.32      -0.029
  YS02001593           JUNCTION      0.00   318.18     0  01:50           0        1.32       0.010
  YS02001596           JUNCTION      0.00   318.01     0  01:56           0        1.32      -0.003
  YS02001600           JUNCTION      0.00   318.01     0  02:12           0        1.32       0.008
  YS02001601           JUNCTION   1283.28  1600.79     0  01:51        2.21        3.53       0.014
  YS02001602           JUNCTION      0.00   534.59     0  01:43           0        2.23       0.015
  YS02001605           JUNCTION      0.00   534.15     0  01:43           0        2.12       0.018
  YS02001607           JUNCTION      0.00   533.95     0  01:43           0        2.12       0.085
  YS02001610           JUNCTION      0.00   692.75     0  01:52           0        2.31       0.097
  YS02001613           JUNCTION      0.00   547.44     0  01:43           0        1.87       0.080
  YS02001616           JUNCTION      0.00   551.62     0  01:43           0        1.87       0.019
  YS02001619           JUNCTION   1276.76  1276.76     0  01:52        2.61        4.28      -0.008
  YS02001622           JUNCTION      0.00   955.36     0  01:49           0        4.08      -0.005
  YS02001625           JUNCTION      0.00  1294.98     0  01:53           0        4.24       0.210
  YS02001629           JUNCTION      0.00   940.22     0  01:44           0        3.37       0.010
  YS02001633           JUNCTION    991.58  1425.70     0  01:45        1.68        4.82       0.067
  YS02001641           JUNCTION      0.00  1419.96     0  01:45           0        4.61       0.062
  YS02001644           JUNCTION    847.45  1847.23     0  01:46        1.38        5.98       0.052
  YS02001647           JUNCTION      0.00  1856.67     0  01:46           0        5.61       0.012
  YS02001649           JUNCTION      0.00  2073.58     0  01:45           0        6.95       0.009
  YS02001652           JUNCTION      0.00   990.59     0  01:48           0        1.34      -0.051
  YS02001655           JUNCTION      0.15   991.47     0  01:49     0.00443        1.34      -0.074
  YS02001658           JUNCTION      0.00   992.40     0  01:49           0        1.33      -0.165
  YS02001661           JUNCTION      0.00   992.12     0  01:49           0        1.33       0.039
  YS02001664           JUNCTION    861.57   861.57     0  01:50        1.33        1.33      -0.029
  YS02001745           JUNCTION    524.99   710.10     0  01:47       0.754       0.756       0.114
  YS02001748           JUNCTION      0.04   611.11     0  01:47      0.0013        0.76      -0.449
  YS02001751           JUNCTION      0.01   594.12     0  01:48    0.000317        0.77       0.048
  YS02001754           JUNCTION      0.26   593.32     0  01:48     0.00749       0.787      -0.223
  YS02001757           JUNCTION      0.00  3361.04     0  01:48           0        10.3       0.020
  YS02001759           JUNCTION    765.32  1413.13     0  01:47         1.1        2.58      -0.004
  YS02001762           JUNCTION      0.00   801.53     0  01:47           0        1.47       0.012
  YS02001765           JUNCTION      0.00   806.34     0  01:47           0        1.47       0.019
  YS02001767           JUNCTION      0.54   811.85     0  01:47      0.0154        1.47       0.013
  YS02001770           JUNCTION   1045.20  1045.20     0  01:50        1.62        1.66      -0.009
  YS02001774           JUNCTION      0.00   491.95     0  01:46           0       0.225       0.500
  YS02001779           JUNCTION      0.01   511.27     0  01:46    0.000144        0.18      -0.470
  YS02001783           JUNCTION      0.00  1165.36     0  01:49           0        3.84       0.006
  YS02001784           JUNCTION      1.06  1165.73     0  01:48      0.0305        3.87       0.013
  YS02001786           JUNCTION      0.06  1166.14     0  01:49     0.00162        3.87       0.018
  YS02001788           JUNCTION      0.07  1167.16     0  01:49     0.00204        3.87       0.007
  YS02001790           JUNCTION      0.15  1174.60     0  01:49     0.00446        3.88       0.026
  YS02001791           JUNCTION      0.00  1292.80     0  01:50           0        3.87      -0.023
  YS02001793           JUNCTION      0.00  1263.07     0  01:49           0        3.88       0.001
  YS02001882           JUNCTION      0.00    67.82     0  01:45           0      0.0125       5.610
  YS02001884           JUNCTION      0.00    99.73     0  01:45           0      0.0484       5.554
  YS02001887           JUNCTION    811.20   814.87     0  01:49        1.14        1.17       0.373
  YS02001890           JUNCTION      0.00   815.18     0  01:49           0        1.13       0.459
  YS02001895           JUNCTION      0.00   536.02     0  01:46           0        1.04       0.176
  YS02001898           JUNCTION      0.00   538.71     0  01:46           0        1.04       0.012
  YS02001901           JUNCTION      0.00   542.29     0  01:46           0        1.04       0.336
  YS02001904           JUNCTION      0.00   544.32     0  01:46           0        1.04       0.266
  YS02001907           JUNCTION      0.00  1851.63     0  01:50           0         3.3       0.554
  YS02001910           JUNCTION      0.00  1336.08     0  01:50           0        2.26       0.318
  YS02001915           JUNCTION    857.06  1335.20     0  01:50         1.4        2.31       0.062
  YS02001918           JUNCTION      0.00   523.69     0  01:46           0       0.947       0.017
  YS02001920           JUNCTION      2.87   489.22     0  01:47      0.0827       0.927       0.048
  YS02001923           JUNCTION      0.04   546.46     0  01:46     0.00109       0.827      -0.084
  YS02001926           JUNCTION      0.05   846.67     0  01:46      0.0015       0.807      -0.145
  YS02001929           JUNCTION    441.27   754.16     0  01:47       0.787       0.792      -0.180
  YS02006553           JUNCTION      0.00   791.96     0  02:06           0        2.31       0.516
  YS02006556           JUNCTION      0.00   791.43     0  02:06           0        2.32       0.352
  YS02006558           JUNCTION   1045.13  1165.57     0  01:49        1.58        3.87       0.089
  YS02006561           JUNCTION      0.00  1165.24     0  01:48           0        3.84      -0.002
  YS02163301           JUNCTION      0.00   936.81     0  01:45           0        3.35       0.041
  YS02163601           JUNCTION      0.11  1424.59     0  01:45     0.00317        4.61       0.103
  YS02164001           JUNCTION      0.00  1422.56     0  01:45           0        4.61       0.049
  CC-1                 OUTFALL       0.00   683.00     0  00:00           0        4.27       0.000
  CC-2                 OUTFALL       0.00   683.00     0  00:00           0        4.09       0.000
  JK-1                 OUTFALL       0.00  1000.00     0  00:00           0        2.27       0.000
  JK-2                 OUTFALL       0.00  1000.00     0  00:00           0      0.0484       0.000
  WSC                  OUTFALL       0.00   754.25     0  03:13           0        9.36       0.000
  CC-storage           STORAGE       0.00  3363.17     0  01:48           0        12.5      -0.205
  JK-storage           STORAGE       0.00  1223.87     0  01:51           0        4.03       0.182
  XR-storage           STORAGE     200.00   200.00     0  00:00        5.76        6.36       0.001
  
  
  **********************
  Node Surcharge Summary
  **********************
  
  Surcharging occurs when water rises above the top of the highest conduit.
  ---------------------------------------------------------------------
                                               Max. Height   Min. Depth
                                   Hours       Above Crown    Below Rim
  Node                 Type      Surcharged         Meters       Meters
  ---------------------------------------------------------------------
  WS02004404           JUNCTION        0.04          0.030        2.750
  WS02006109           JUNCTION        1.63          0.543        1.277
  WS02006110           JUNCTION        1.01          0.627        1.223
  WS02006112           JUNCTION        1.24          0.110        1.570
  WS02006228           JUNCTION        1.63          0.436        1.764
  WS02006229           JUNCTION        1.63          0.469        1.981
  WS02006230           JUNCTION        1.03          0.408        1.162
  WS02006231           JUNCTION        1.18          0.666        0.864
  WS02006232           JUNCTION        1.66          0.641        0.839
  WS02006234           JUNCTION        1.44          0.896        0.344
  WS02006235           JUNCTION        1.60          0.806        0.484
  WS02006238           JUNCTION        1.64          0.839        0.591
  WS02006239           JUNCTION        1.61          0.782        0.508
  WS02006240           JUNCTION        1.62          0.773        0.617
  WS02006242           JUNCTION        1.65          0.788        0.032
  WS02006243           JUNCTION        1.63          0.661        0.109
  WS02006245           JUNCTION        1.62          0.590        0.260
  WS02006247           JUNCTION        1.62          0.593        0.167
  WS02006248           JUNCTION        1.62          0.380        0.000
  WS02006249           JUNCTION        1.61          0.390        0.000
  WS02006251           JUNCTION        1.26          0.705        0.475
  WS02006252           JUNCTION        1.80          1.100        0.000
  WS02006256           JUNCTION        3.45          2.050        0.000
  YS02001580           JUNCTION        0.61          0.450        0.000
  YS02001583           JUNCTION        0.62          0.500        0.000
  YS02001586           JUNCTION        0.75          0.510        0.000
  YS02001590           JUNCTION        0.82          0.750        0.000
  YS02001593           JUNCTION        0.83          0.790        0.050
  YS02001596           JUNCTION        0.94          0.949        0.121
  YS02001600           JUNCTION        1.10          1.190        0.000
  YS02001601           JUNCTION        1.51          1.440        0.000
  YS02001602           JUNCTION        1.38          1.270        0.000
  YS02001605           JUNCTION        1.31          1.180        0.000
  YS02001607           JUNCTION        0.82          0.650        0.030
  YS02001610           JUNCTION        0.84          0.680        0.000
  YS02001613           JUNCTION        0.81          0.698        0.002
  YS02001616           JUNCTION        0.77          0.610        0.000
  YS02001619           JUNCTION        0.75          0.610        0.000
  YS02001622           JUNCTION        0.75          0.620        0.000
  YS02001625           JUNCTION        0.94          0.780        0.000
  YS02001629           JUNCTION        0.70          0.470        0.000
  YS02001633           JUNCTION        0.97          1.060        0.000
  YS02001641           JUNCTION        0.92          0.959        0.141
  YS02001644           JUNCTION        0.89          0.920        0.000
  YS02001647           JUNCTION        0.69          0.812        0.088
  YS02001649           JUNCTION        0.83          1.050        0.000
  YS02001652           JUNCTION        0.61          0.965        0.165
  YS02001655           JUNCTION        0.44          1.072        0.128
  YS02001658           JUNCTION        0.21          1.129        0.171
  YS02001661           JUNCTION        0.02          0.561        0.829
  YS02001664           JUNCTION        0.01          0.002        1.308
  YS02001745           JUNCTION        0.01          1.067        0.283
  YS02001748           JUNCTION        0.15          1.190        0.000
  YS02001751           JUNCTION        0.30          1.200        0.000
  YS02001754           JUNCTION        0.51          1.150        0.000
  YS02001757           JUNCTION        0.90          1.210        0.000
  YS02001759           JUNCTION        0.80          1.195        0.015
  YS02001762           JUNCTION        0.76          1.150        0.000
  YS02001765           JUNCTION        0.71          1.100        0.000
  YS02001767           JUNCTION        0.67          1.030        0.000
  YS02001770           JUNCTION        0.65          0.920        0.000
  YS02001774           JUNCTION        0.74          1.005        0.045
  YS02001779           JUNCTION        0.50          0.680        0.000
  YS02001783           JUNCTION        0.50          0.520        1.080
  YS02001784           JUNCTION        0.47          0.395        1.095
  YS02001786           JUNCTION        0.37          0.120        1.310
  YS02001882           JUNCTION        0.44          0.692        0.138
  YS02001884           JUNCTION        0.45          0.718        0.152
  YS02001887           JUNCTION        0.49          0.795        0.155
  YS02001890           JUNCTION        0.50          0.760        0.000
  YS02001895           JUNCTION        0.43          0.592        0.158
  YS02001898           JUNCTION        0.42          0.555        0.185
  YS02001901           JUNCTION        0.47          0.685        0.185
  YS02001904           JUNCTION        0.46          0.643        0.207
  YS02001907           JUNCTION        0.69          0.950        0.000
  YS02001910           JUNCTION        0.52          0.976        0.124
  YS02001915           JUNCTION        0.44          0.916        0.084
  YS02001918           JUNCTION        0.36          0.810        0.000
  YS02001920           JUNCTION        0.37          1.140        0.000
  YS02001923           JUNCTION        0.06          0.820        0.000
  YS02001926           JUNCTION        0.09          0.900        0.000
  YS02001929           JUNCTION        0.01          0.780        0.000
  YS02006553           JUNCTION        0.71          1.002        0.188
  YS02006556           JUNCTION        0.61          0.980        0.370
  YS02006558           JUNCTION        0.60          0.961        0.439
  YS02006561           JUNCTION        0.32          0.197        0.953
  YS02163301           JUNCTION        0.95          0.966        0.064
  YS02163601           JUNCTION        1.00          1.080        0.000
  YS02164001           JUNCTION        0.92          0.992        0.108
  
  
  *********************
  Node Flooding Summary
  *********************
  
  Flooding refers to all water that overflows a node, whether it ponds or not.
  --------------------------------------------------------------------------
                                                             Total   Maximum
                                 Maximum   Time of Max       Flood    Ponded
                        Hours       Rate    Occurrence      Volume     Depth
  Node                 Flooded       LPS   days hr:min    10^6 ltr    Meters
  --------------------------------------------------------------------------
  WS02006248              0.01     16.85      0  02:05       0.000     0.000
  WS02006249              1.23     82.16      0  02:23       0.295     0.000
  WS02006252              0.01    245.63      0  00:00       0.000     0.000
  WS02006256              1.40    293.19      0  00:00       0.510     0.000
  YS02001580              0.01    105.63      0  01:44       0.000     0.000
  YS02001583              0.01    176.70      0  01:44       0.000     0.000
  YS02001586              0.50    417.13      0  01:52       0.364     0.000
  YS02001590              0.01     54.09      0  01:42       0.000     0.000
  YS02001600              0.01      2.18      0  01:43       0.000     0.000
  YS02001601              0.67   1202.90      0  01:51       1.292     0.000
  YS02001602              0.58     62.01      0  01:49       0.116     0.000
  YS02001605              0.01      2.71      0  01:44       0.000     0.000
  YS02001610              0.50    692.32      0  01:52       0.640     0.000
  YS02001616              0.01     14.06      0  01:44       0.000     0.000
  YS02001619              0.01     75.93      0  01:43       0.000     0.000
  YS02001622              0.01    182.33      0  01:43       0.000     0.000
  YS02001625              0.47   1294.96      0  01:53       1.077     0.000
  YS02001629              0.11    305.36      0  01:49       0.065     0.000
  YS02001633              0.01      4.14      0  01:47       0.000     0.000
  YS02001644              0.18    964.49      0  01:49       0.359     0.000
  YS02001649              0.01    143.07      0  01:48       0.001     0.000
  YS02001748              0.01    327.92      0  01:47       0.001     0.000
  YS02001751              0.01     32.27      0  01:47       0.000     0.000
  YS02001754              0.01     65.54      0  01:47       0.000     0.000
  YS02001757              0.01    112.54      0  01:48       0.001     0.000
  YS02001762              0.01     10.82      0  01:47       0.000     0.000
  YS02001765              0.01      9.84      0  01:47       0.000     0.000
  YS02001767              0.01      6.19      0  01:47       0.000     0.000
  YS02001770              0.01     68.33      0  01:48       0.001     0.000
  YS02001779              0.16    480.21      0  01:50       0.162     0.000
  YS02001890              0.14    304.99      0  01:49       0.085     0.000
  YS02001907              0.30   1721.73      0  01:50       0.983     0.000
  YS02001918              0.01    305.01      0  01:47       0.004     0.000
  YS02001920              0.01    121.70      0  01:47       0.000     0.000
  YS02001923              0.01    158.32      0  01:47       0.001     0.000
  YS02001926              0.01    454.58      0  01:47       0.003     0.000
  YS02001929              0.01    373.96      0  01:47       0.001     0.000
  YS02163601              0.01      4.02      0  01:47       0.000     0.000
  
  
  **********************
  Storage Volume Summary
  **********************
  
  ------------------------------------------------------------------------------------------------
                         Average    Avg   Evap  Exfil     Maximum    Max    Time of Max    Maximum
                          Volume   Pcnt   Pcnt   Pcnt      Volume   Pcnt     Occurrence    Outflow
  Storage Unit           1000 m³   Full   Loss   Loss     1000 m³   Full    days hr:min        LPS
  ------------------------------------------------------------------------------------------------
  CC-storage               2.545   39.7    0.0    0.0       4.739   73.9       0  02:19    1783.53
  JK-storage               0.136   46.8    0.0    0.0       0.213   73.2       0  01:50    2300.00
  XR-storage               0.936   65.0    0.0    0.0       1.111   77.2       0  08:00     380.00
  
  
  ***********************
  Outfall Loading Summary
  ***********************
  
  -----------------------------------------------------------
                         Flow       Avg       Max       Total
                         Freq      Flow      Flow      Volume
  Outfall Node           Pcnt       LPS       LPS    10^6 ltr
  -----------------------------------------------------------
  CC-1                  39.84    683.00    683.00       4.270
  CC-2                  37.93    683.00    683.00       4.085
  JK-1                  17.94   1000.00   1000.00       2.269
  JK-2                   0.25   1000.00   1000.00       0.048
  WSC                   99.93    410.74    754.25       9.365
  -----------------------------------------------------------
  System                39.18   3776.74   3366.23      20.037
  
  
  ********************
  Link Flow Summary
  ********************
  
  -----------------------------------------------------------------------------
                                 Maximum  Time of Max   Maximum    Max/    Max/
                                  |Flow|   Occurrence   |Veloc|    Full    Full
  Link                 Type          LPS  days hr:min     m/sec    Flow   Depth
  -----------------------------------------------------------------------------
  1                    CONDUIT    754.25     0  03:13      3.08    0.26    0.35
  WS02001211WS02001212 CONDUIT    202.58     0  03:25      0.54    0.15    0.51
  WS02001212WS02001213 CONDUIT    204.30     0  03:40      1.04    0.32    0.36
  WS02001213WS02003059 CONDUIT    210.17     0  03:39      0.47    0.35    0.67
  WS02003059WS02003060 CONDUIT    216.65     0  03:40      0.67    0.14    0.59
  WS02003060WS02003069 CONDUIT    752.53     0  03:13      1.77    0.29    0.40
  WS02003066WSF200     CONDUIT    538.61     0  03:10      2.74    0.09    0.23
  WS02003067WS02003066 CONDUIT    538.56     0  03:10      1.21    0.17    0.42
  WS02003069WS02003072 CONDUIT    752.62     0  03:11      1.51    0.36    0.45
  WS02003072WS02003073 CONDUIT    752.52     0  03:12      1.60    1.63    0.43
  WS02004138WS02004139 CONDUIT    190.84     0  00:29      2.17    0.04    0.33
  WS02004139WS02001211 CONDUIT    193.03     0  03:25      0.54    0.24    0.47
  WS02004401WS02004402 CONDUIT    541.22     0  03:04      0.97    0.65    0.89
  WS02004402WS02004403 CONDUIT    542.22     0  03:02      0.97    0.78    0.91
  WS02004403WS02004404 CONDUIT    561.29     0  03:02      0.92    0.41    0.96
  WS02004404WS02004405 CONDUIT    604.32     0  03:02      1.08    5.92    0.98
  WS02004405WS02004406 CONDUIT    544.87     0  03:02      0.99    1.07    0.96
  WS02004406WS02004407 CONDUIT    540.58     0  03:02      1.04    0.24    0.63
  WS02004407WS02004409 CONDUIT    539.91     0  03:02      1.56    0.19    0.48
  WS02004409WS02004410 CONDUIT    539.49     0  03:03      1.04    0.70    0.68
  WS02004410WS02004411 CONDUIT    539.05     0  03:03      0.98    0.74    0.69
  WS02004411WS02004412 CONDUIT    538.96     0  03:03      0.93    0.77    0.70
  WS02004412WS02004413 CONDUIT    538.80     0  03:09      0.82    0.36    0.78
  WS02004413WS02003067 CONDUIT    538.50     0  03:10      1.11    0.23    0.59
  WS02006109WS02006110 CONDUIT    561.93     0  02:29      1.12    1.08    1.00
  WS02006110WS02006113 CONDUIT    571.03     0  02:23      1.38    0.52    0.79
  WS02006111WS02006112 CONDUIT    543.09     0  02:52      1.82    0.26    0.67
  WS02006112WS02006115 CONDUIT    549.71     0  02:30      0.86    0.32    0.88
  WS02006113WS02006111 CONDUIT    561.76     0  02:34      2.47    0.67    0.46
  WS02006115WS02006116 CONDUIT    539.48     0  02:15      1.05    0.69    0.78
  WS02006116WS02004401 CONDUIT    539.04     0  03:03      0.98    0.74    0.87
  WS02006228WS02006109 CONDUIT    560.06     0  02:29      1.11    2.45    1.00
  WS02006229WS02006228 CONDUIT    560.42     0  02:29      1.15    1.86    1.00
  WS02006230WS02006229 CONDUIT    560.00     0  02:29      1.46   12.46    1.00
  WS02006231WS02006230 CONDUIT    582.21     0  01:55      1.60    8.83    1.00
  WS02006232WS02006231 CONDUIT    576.49     0  02:16      1.50    1.21    1.00
  WS02006234WS02006232 CONDUIT    575.55     0  02:16      1.50    1.16    1.00
  WS02006235WS02006234 CONDUIT    572.13     0  02:16      1.49    6.04    1.00
  WS02006238WS02006235 CONDUIT    426.90     0  02:35      1.56    0.95    1.00
  WS02006239WS02006238 CONDUIT    427.27     0  02:35      1.11    1.37    1.00
  WS02006240WS02006239 CONDUIT    424.77     0  02:35      1.24    1.34    1.00
  WS02006242WS02006240 CONDUIT    420.58     0  02:15      1.12    1.67    1.00
  WS02006243WS02006242 CONDUIT    421.26     0  02:35      1.39    0.90    1.00
  WS02006245WS02006243 CONDUIT    421.61     0  02:35      1.45    1.25    1.00
  WS02006247WS02006245 CONDUIT    422.42     0  02:35      1.44    3.35    1.00
  WS02006248WS02006247 CONDUIT    422.41     0  02:35      1.45    0.92    1.00
  WS02006249WS02006248 CONDUIT    422.04     0  02:35      1.37    2.31    1.00
  WS02006251WS02006249 CONDUIT    458.97     0  00:00      1.99    1.32    1.00
  WS02006252WS02006251 CONDUIT    407.99     0  01:50     28.11    1.50    1.00
  WS02006256WS02006235 CONDUIT    289.21     0  01:40      4.23    3.06    1.00
  WSF200WS02003060     CONDUIT    538.91     0  03:06      1.76    0.12    0.32
  YS02001580YS02001583 CONDUIT    126.59     0  01:43      0.77    0.49    1.00
  YS02001583YS02001586 CONDUIT    181.29     0  01:44      0.78    0.27    1.00
  YS02001586YS02001590 CONDUIT    318.47     0  01:50      1.27    0.56    1.00
  YS02001590YS02001593 CONDUIT    318.18     0  01:50      1.13    2.00    1.00
  YS02001593YS02001596 CONDUIT    318.01     0  01:56      1.74    0.50    1.00
  YS02001596YS02001600 CONDUIT    318.01     0  02:12      1.22    0.62    1.00
  YS02001600YS02001601 CONDUIT    318.09     0  01:50      1.13    0.55    1.00
  YS02001601YS02001602 CONDUIT    534.59     0  01:43      1.89    1.93    1.00
  YS02001602YS02001605 CONDUIT    534.15     0  01:43      1.89   11.30    1.00
  YS02001605YS02001607 CONDUIT    533.95     0  01:43      1.89    2.93    1.00
  YS02001607YS02001610 CONDUIT    543.34     0  01:43      0.69    0.52    1.00
  YS02001610YS02001613 CONDUIT    547.44     0  01:43      0.70    0.63    1.00
  YS02001613YS02001616 CONDUIT    551.62     0  01:43      0.71    0.47    1.00
  YS02001616YS02001619 CONDUIT    526.45     0  01:43      0.67    0.91    1.00
  YS02001619YS02001622 CONDUIT    955.36     0  01:49      1.22    1.41    1.00
  YS02001622YS02001625 CONDUIT    956.81     0  01:49      1.22    0.51    1.00
  YS02001625YS02001629 CONDUIT    940.22     0  01:44      1.20    0.45    1.00
  YS02001629YS02163301 CONDUIT    936.81     0  01:45      1.19    1.15    1.00
  YS02001633YS02163601 CONDUIT   1424.48     0  01:45      1.81    1.50    1.00
  YS02001641YS02001644 CONDUIT   1420.46     0  01:45      1.81    4.59    1.00
  YS02001644YS02001647 CONDUIT   1856.67     0  01:46      2.38    1.09    1.00
  YS02001647YS02001649 CONDUIT   1870.77     0  01:46      2.38    0.99    1.00
  YS02001649YS02001757 CONDUIT   2067.98     0  01:46      2.63    1.25    1.00
  YS02001652YS02001649 CONDUIT    992.77     0  01:48      1.26    0.49    1.00
  YS02001655YS02001652 CONDUIT    990.59     0  01:48      1.38    0.48    1.00
  YS02001658YS02001655 CONDUIT    991.31     0  01:49      1.96    0.42    1.00
  YS02001661YS02001658 CONDUIT    992.40     0  01:49      2.37    0.39    1.00
  YS02001664YS02001661 CONDUIT    992.12     0  01:49      2.43    0.31    1.00
  YS02001745YS02001748 CONDUIT    609.61     0  01:47      2.22    0.23    1.00
  YS02001748YS02001751 CONDUIT    594.10     0  01:48      1.74    0.30    1.00
  YS02001751YS02001754 CONDUIT    593.06     0  01:48      1.48    0.29    1.00
  YS02001754YS02001757 CONDUIT    592.53     0  01:48      0.75    0.24    1.00
  YS02001757CaochengTiaoxuchi CONDUIT   3363.17     0  01:48      4.28    1.46    1.00
  YS02001759YS02001757 CONDUIT   1407.86     0  01:47      1.79    1.00    1.00
  YS02001762YS02001759 CONDUIT    796.75     0  01:47      1.01    0.92    1.00
  YS02001765YS02001762 CONDUIT    801.53     0  01:47      1.02    0.75    1.00
  YS02001767YS02001765 CONDUIT    806.34     0  01:47      1.03    1.01    1.00
  YS02001770YS02001767 CONDUIT    811.31     0  01:47      1.03    3.21    1.00
  YS02001774YS02001770 CONDUIT    491.95     0  01:46      0.63    0.31    1.00
  YS02001779YS02001774 CONDUIT    511.27     0  01:46      0.65    0.26    1.00
  YS02001783YS02001784 CONDUIT   1164.67     0  01:48      2.32    1.61    1.00
  YS02001784YS02001785 CONDUIT   1166.09     0  01:49      2.32    2.71    1.00
  YS02001786YS02001788 CONDUIT   1167.09     0  01:49      2.48    2.25    0.89
  YS02001788YS02001790 CONDUIT   1174.44     0  01:49      2.71    0.87    0.84
  YS02001790YS02001791 CONDUIT   1292.80     0  01:50      3.44    1.41    0.71
  YS02001791YS02001793 CONDUIT   1263.07     0  01:49      6.53    0.54    0.45
  YS02001793JiankangQianchi CONDUIT   1223.87     0  01:51      2.35    0.10    0.66
  YS02001882YS02001884 CONDUIT     67.82     0  01:45      0.15    0.08    1.00
  YS02001884YS02001887 CONDUIT     99.73     0  01:45      0.13    0.13    1.00
  YS02001887YS02001890 CONDUIT    815.18     0  01:49      1.04    1.40    1.00
  YS02001890YS02001895 CONDUIT    536.02     0  01:46      0.68    0.25    1.00
  YS02001895YS02001898 CONDUIT    538.71     0  01:46      0.69    0.93    1.00
  YS02001898YS02001901 CONDUIT    542.29     0  01:46      0.69    0.35    1.00
  YS02001901YS02001904 CONDUIT    544.32     0  01:46      0.69    0.84    1.00
  YS02001904YS02001907 CONDUIT    547.17     0  01:46      0.70    0.19    1.00
  YS02001907YS02006553 CONDUIT    791.96     0  02:06      0.88    0.93    1.00
  YS02001910YS02001907 CONDUIT   1336.24     0  01:50      1.70    0.75    1.00
  YS02001915YS02001910 CONDUIT   1336.08     0  01:50      1.70    0.66    1.00
  YS02001918YS02001915 CONDUIT    523.69     0  01:46      0.67    0.29    1.00
  YS02001920YS02001918 CONDUIT    486.35     0  01:47      0.65    0.47    1.00
  YS02001923YS02001920 CONDUIT    487.69     0  01:47      0.72    0.22    1.00
  YS02001926YS02001923 CONDUIT    616.19     0  01:46      1.01    0.88    1.00
  YS02001929YS02001926 CONDUIT    473.85     0  01:50      1.21    0.23    1.00
  YS02006553YS02006556 CONDUIT    791.43     0  02:06      1.01    0.68    1.00
  YS02006556YS02006558 CONDUIT    792.13     0  02:05      1.01    0.63    1.00
  YS02006558YS02006561 CONDUIT   1165.24     0  01:48      4.12    2.58    1.00
  YS02006561YS02001783 CONDUIT   1165.36     0  01:49      2.32    0.60    1.00
  YS02163301YS02001633 CONDUIT    936.44     0  01:45      1.19    0.88    1.00
  YS02163601YS02164001 CONDUIT   1422.56     0  01:45      1.81    1.26    1.00
  YS02164001YS02001641 CONDUIT   1419.96     0  01:45      1.81    1.94    1.00
  CC-R1                PUMP       683.00     0  00:00              1.00
  CC-R2                PUMP       683.00     0  00:00              1.00
  CC-S1                PUMP       200.00     0  00:00              1.00
  CC-S2                PUMP       200.00     0  00:00              1.00
  JK-R1                PUMP      1000.00     0  00:00              1.00
  JK-R2                PUMP      1000.00     0  00:00              1.00
  JK-S                 PUMP       300.00     0  00:00              1.00
  XR-1                 PUMP        95.00     0  00:00              1.00
  XR-2                 PUMP        95.00     0  00:00              1.00
  XR-3                 PUMP        95.00     0  00:00              1.00
  XR-4                 PUMP        95.00     0  00:00              1.00
  
  
  ***************************
  Flow Classification Summary
  ***************************
  
  -------------------------------------------------------------------------------------
                      Adjusted    ---------- Fraction of Time in Flow Class ---------- 
                       /Actual         Up    Down  Sub   Sup   Up    Down  Norm  Inlet 
  Conduit               Length    Dry  Dry   Dry   Crit  Crit  Crit  Crit  Ltd   Ctrl  
  -------------------------------------------------------------------------------------
  1                       1.00   0.00  0.00  0.00  0.00  1.00  0.00  0.00  0.14  0.00
  WS02001211WS02001212    1.00   0.00  0.02  0.00  0.98  0.00  0.00  0.00  0.00  0.00
  WS02001212WS02001213    1.00   0.02  0.00  0.00  0.22  0.00  0.75  0.00  0.00  0.00
  WS02001213WS02003059    1.00   0.00  0.01  0.00  0.99  0.00  0.00  0.00  0.00  0.00
  WS02003059WS02003060    1.00   0.00  0.00  0.00  1.00  0.00  0.00  0.00  0.03  0.00
  WS02003060WS02003069    1.00   0.00  0.00  0.00  0.98  0.02  0.00  0.00  0.71  0.00
  WS02003066WSF200        1.00   0.13  0.00  0.00  0.00  0.87  0.00  0.00  0.71  0.00
  WS02003067WS02003066    1.00   0.10  0.02  0.00  0.88  0.00  0.00  0.00  0.00  0.00
  WS02003069WS02003072    1.00   0.00  0.00  0.00  1.00  0.00  0.00  0.00  0.75  0.00
  WS02003072WS02003073    1.00   0.00  0.00  0.00  0.00  0.00  0.00  1.00  0.00  0.00
  WS02004138WS02004139    1.00   0.00  0.00  0.00  0.97  0.01  0.00  0.02  0.98  0.00
  WS02004139WS02001211    1.00   0.00  0.00  0.00  0.99  0.00  0.00  0.00  0.00  0.00
  WS02004401WS02004402    1.00   0.02  0.00  0.00  0.98  0.00  0.00  0.00  0.00  0.00
  WS02004402WS02004403    1.00   0.02  0.00  0.00  0.97  0.00  0.00  0.00  0.00  0.00
  WS02004403WS02004404    1.00   0.00  0.03  0.00  0.97  0.00  0.00  0.00  0.00  0.00
  WS02004404WS02004405    1.00   0.00  0.00  0.00  1.00  0.00  0.00  0.00  0.01  0.00
  WS02004405WS02004406    1.00   0.00  0.00  0.00  1.00  0.00  0.00  0.00  0.00  0.00
  WS02004406WS02004407    1.00   0.00  0.05  0.00  0.95  0.00  0.00  0.00  0.00  0.00
  WS02004407WS02004409    1.00   0.05  0.00  0.00  0.94  0.01  0.00  0.00  0.94  0.00
  WS02004409WS02004410    1.00   0.05  0.00  0.00  0.95  0.00  0.00  0.00  0.03  0.00
  WS02004410WS02004411    1.00   0.05  0.00  0.00  0.95  0.00  0.00  0.00  0.01  0.00
  WS02004411WS02004412    1.00   0.05  0.00  0.00  0.95  0.00  0.00  0.00  0.00  0.00
  WS02004412WS02004413    1.00   0.05  0.00  0.00  0.94  0.00  0.00  0.00  0.01  0.00
  WS02004413WS02003067    1.00   0.06  0.04  0.00  0.00  0.00  0.90  0.00  0.00  0.00
  WS02006109WS02006110    1.00   0.00  0.01  0.00  0.98  0.00  0.01  0.00  0.00  0.00
  WS02006110WS02006113    1.00   0.01  0.01  0.00  0.98  0.00  0.00  0.00  0.00  0.00
  WS02006111WS02006112    1.00   0.02  0.00  0.00  0.98  0.00  0.00  0.00  0.98  0.00
  WS02006112WS02006115    1.00   0.02  0.00  0.00  0.97  0.00  0.00  0.00  0.00  0.00
  WS02006113WS02006111    1.00   0.02  0.00  0.00  0.00  0.98  0.00  0.00  0.08  0.00
  WS02006115WS02006116    1.00   0.02  0.00  0.00  0.97  0.00  0.00  0.01  0.00  0.00
  WS02006116WS02004401    1.00   0.02  0.00  0.00  0.98  0.00  0.00  0.00  0.00  0.00
  WS02006228WS02006109    1.00   0.00  0.00  0.00  1.00  0.00  0.00  0.00  0.00  0.00
  WS02006229WS02006228    1.00   0.00  0.00  0.00  0.99  0.00  0.00  0.01  0.00  0.00
  WS02006230WS02006229    1.00   0.00  0.00  0.00  0.99  0.00  0.00  0.01  0.00  0.00
  WS02006231WS02006230    1.00   0.00  0.00  0.00  0.21  0.00  0.79  0.00  0.00  0.00
  WS02006232WS02006231    1.00   0.00  0.00  0.00  0.99  0.00  0.01  0.00  0.00  0.00
  WS02006234WS02006232    1.00   0.00  0.00  0.00  1.00  0.00  0.00  0.00  0.47  0.00
  WS02006235WS02006234    1.00   0.00  0.00  0.00  0.49  0.00  0.51  0.00  0.00  0.00
  WS02006238WS02006235    1.00   0.00  0.00  0.00  1.00  0.00  0.00  0.00  0.00  0.00
  WS02006239WS02006238    1.00   0.00  0.00  0.00  1.00  0.00  0.00  0.00  0.57  0.00
  WS02006240WS02006239    1.00   0.00  0.00  0.00  0.38  0.00  0.00  0.62  0.01  0.00
  WS02006242WS02006240    1.00   0.00  0.00  0.00  1.00  0.00  0.00  0.00  0.00  0.00
  WS02006243WS02006242    1.00   0.00  0.00  0.00  0.99  0.00  0.00  0.01  0.73  0.00
  WS02006245WS02006243    1.00   0.00  0.00  0.00  0.43  0.00  0.00  0.57  0.00  0.00
  WS02006247WS02006245    1.00   0.00  0.00  0.00  0.99  0.00  0.00  0.01  0.00  0.00
  WS02006248WS02006247    1.00   0.00  0.00  0.00  0.99  0.00  0.00  0.01  0.19  0.00
  WS02006249WS02006248    1.00   0.00  0.00  0.00  0.32  0.00  0.68  0.00  0.00  0.00
  WS02006251WS02006249    1.00   0.00  0.00  0.00  0.99  0.01  0.00  0.00  0.72  0.00
  WS02006252WS02006251    1.00   0.00  0.74  0.00  0.16  0.00  0.10  0.00  0.00  0.00
  WS02006256WS02006235    1.00   0.00  0.00  0.00  1.00  0.00  0.00  0.00  0.00  0.00
  WSF200WS02003060        1.00   0.00  0.13  0.00  0.67  0.20  0.00  0.00  0.65  0.00
  YS02001580YS02001583    1.00   0.21  0.59  0.00  0.19  0.00  0.00  0.00  0.68  0.00
  YS02001583YS02001586    1.00   0.48  0.27  0.00  0.25  0.00  0.00  0.00  0.69  0.00
  YS02001586YS02001590    1.00   0.13  0.00  0.00  0.40  0.04  0.00  0.44  0.33  0.00
  YS02001590YS02001593    1.00   0.13  0.01  0.00  0.12  0.00  0.75  0.00  0.00  0.00
  YS02001593YS02001596    1.00   0.13  0.00  0.00  0.14  0.01  0.00  0.72  0.02  0.00
  YS02001596YS02001600    1.00   0.13  0.00  0.00  0.20  0.01  0.00  0.65  0.05  0.00
  YS02001600YS02001601    1.00   0.13  0.01  0.00  0.86  0.00  0.00  0.00  0.61  0.00
  YS02001601YS02001602    1.00   0.13  0.01  0.00  0.87  0.00  0.00  0.00  0.00  0.00
  YS02001602YS02001605    1.00   0.13  0.00  0.00  0.87  0.00  0.00  0.00  0.00  0.00
  YS02001605YS02001607    1.00   0.14  0.00  0.00  0.86  0.00  0.00  0.00  0.00  0.00
  YS02001607YS02001610    1.00   0.13  0.01  0.00  0.86  0.00  0.00  0.00  0.01  0.00
  YS02001610YS02001613    1.00   0.13  0.00  0.00  0.87  0.00  0.00  0.00  0.00  0.00
  YS02001613YS02001616    1.00   0.13  0.00  0.00  0.87  0.00  0.00  0.00  0.00  0.00
  YS02001616YS02001619    1.00   0.13  0.00  0.00  0.87  0.00  0.00  0.00  0.00  0.00
  YS02001619YS02001622    1.00   0.13  0.00  0.00  0.87  0.00  0.00  0.00  0.34  0.00
  YS02001622YS02001625    1.00   0.13  0.00  0.00  0.87  0.00  0.00  0.00  0.03  0.00
  YS02001625YS02001629    1.00   0.13  0.04  0.00  0.17  0.00  0.66  0.00  0.00  0.00
  YS02001629YS02163301    1.00   0.15  0.01  0.00  0.84  0.00  0.00  0.00  0.00  0.00
  YS02001633YS02163601    1.00   0.00  0.01  0.00  0.99  0.00  0.00  0.00  0.14  0.00
  YS02001641YS02001644    1.00   0.00  0.01  0.00  0.99  0.00  0.00  0.00  0.00  0.00
  YS02001644YS02001647    1.00   0.00  0.16  0.00  0.84  0.00  0.00  0.00  0.00  0.00
  YS02001647YS02001649    1.00   0.00  0.16  0.00  0.59  0.25  0.00  0.00  0.58  0.00
  YS02001649YS02001757    1.00   0.00  0.00  0.00  0.72  0.28  0.00  0.00  0.53  0.00
  YS02001652YS02001649    1.00   0.00  0.00  0.00  0.97  0.03  0.00  0.00  0.75  0.00
  YS02001655YS02001652    1.00   0.00  0.00  0.00  0.19  0.01  0.00  0.80  0.05  0.00
  YS02001658YS02001655    1.00   0.00  0.14  0.00  0.68  0.18  0.00  0.00  0.68  0.00
  YS02001661YS02001658    1.00   0.14  0.00  0.00  0.55  0.32  0.00  0.00  0.71  0.00
  YS02001664YS02001661    1.00   0.13  0.00  0.00  0.77  0.11  0.00  0.00  0.85  0.00
  YS02001745YS02001748    1.00   0.00  0.00  0.00  0.11  0.01  0.00  0.89  0.05  0.00
  YS02001748YS02001751    1.00   0.00  0.00  0.00  0.85  0.15  0.00  0.00  0.77  0.00
  YS02001751YS02001754    1.00   0.00  0.00  0.00  0.16  0.00  0.00  0.84  0.02  0.00
  YS02001754YS02001757    1.00   0.00  0.00  0.00  1.00  0.00  0.00  0.00  0.83  0.00
  YS02001757CaochengTiaoxuchi    1.00   0.00  0.00  0.00  1.00  0.00  0.00  0.00  0.82  0.00
  YS02001759YS02001757    1.00   0.00  0.00  0.00  0.99  0.01  0.00  0.00  0.62  0.00
  YS02001762YS02001759    1.00   0.00  0.00  0.00  1.00  0.00  0.00  0.00  0.03  0.00
  YS02001765YS02001762    1.00   0.00  0.00  0.00  1.00  0.00  0.00  0.00  0.73  0.00
  YS02001767YS02001765    1.00   0.00  0.00  0.00  1.00  0.00  0.00  0.00  0.00  0.00
  YS02001770YS02001767    1.00   0.00  0.00  0.00  1.00  0.00  0.00  0.00  0.00  0.00
  YS02001774YS02001770    1.00   0.00  0.13  0.00  0.61  0.00  0.26  0.00  0.03  0.00
  YS02001779YS02001774    1.00   0.00  0.00  0.00  1.00  0.00  0.00  0.00  0.78  0.00
  YS02001783YS02001784    1.00   0.00  0.17  0.00  0.83  0.00  0.00  0.00  0.57  0.00
  YS02001784YS02001785    1.00   0.00  0.00  0.00  1.00  0.00  0.00  0.00  0.16  0.00
  YS02001786YS02001788    1.00   0.00  0.00  0.00  0.79  0.21  0.00  0.00  0.00  0.00
  YS02001788YS02001790    1.00   0.00  0.00  0.00  0.20  0.80  0.00  0.00  0.80  0.00
  YS02001790YS02001791    1.00   0.00  0.00  0.00  0.01  0.99  0.00  0.00  0.17  0.00
  YS02001791YS02001793    1.00   0.00  0.00  0.00  0.00  1.00  0.00  0.00  0.01  0.00
  YS02001793JiankangQianchi    1.00   0.00  0.00  0.00  0.99  0.00  0.00  0.00  0.95  0.00
  YS02001882YS02001884    1.00   0.15  0.01  0.00  0.85  0.00  0.00  0.00  0.00  0.00
  YS02001884YS02001887    1.00   0.06  0.05  0.00  0.89  0.00  0.00  0.00  0.00  0.00
  YS02001887YS02001890    1.00   0.00  0.00  0.00  0.97  0.00  0.03  0.00  0.00  0.00
  YS02001890YS02001895    1.00   0.00  0.15  0.00  0.84  0.00  0.00  0.00  0.00  0.00
  YS02001895YS02001898    1.00   0.16  0.00  0.00  0.83  0.00  0.02  0.00  0.00  0.00
  YS02001898YS02001901    1.00   0.16  0.00  0.00  0.84  0.00  0.00  0.00  0.01  0.00
  YS02001901YS02001904    1.00   0.16  0.00  0.00  0.84  0.00  0.00  0.00  0.00  0.00
  YS02001904YS02001907    1.00   0.00  0.16  0.00  0.84  0.00  0.00  0.00  0.00  0.00
  YS02001907YS02006553    1.00   0.00  0.02  0.00  0.98  0.00  0.00  0.00  0.00  0.00
  YS02001910YS02001907    1.00   0.00  0.00  0.00  0.97  0.00  0.00  0.03  0.12  0.00
  YS02001915YS02001910    1.00   0.00  0.00  0.00  0.97  0.03  0.00  0.00  0.14  0.00
  YS02001918YS02001915    1.00   0.00  0.01  0.00  0.98  0.02  0.00  0.00  0.76  0.00
  YS02001920YS02001918    1.00   0.00  0.01  0.00  0.99  0.00  0.00  0.00  0.00  0.00
  YS02001923YS02001920    1.00   0.00  0.00  0.00  1.00  0.00  0.00  0.00  0.93  0.00
  YS02001926YS02001923    1.00   0.00  0.07  0.00  0.05  0.00  0.87  0.00  0.00  0.00
  YS02001929YS02001926    1.00   0.00  0.13  0.00  0.87  0.00  0.00  0.00  0.83  0.00
  YS02006553YS02006556    1.00   0.01  0.00  0.00  0.99  0.00  0.00  0.00  0.03  0.00
  YS02006556YS02006558    1.00   0.00  0.00  0.00  1.00  0.00  0.00  0.00  0.00  0.00
  YS02006558YS02006561    1.00   0.17  0.00  0.00  0.05  0.78  0.00  0.00  0.18  0.00
  YS02006561YS02001783    1.00   0.17  0.00  0.00  0.08  0.75  0.00  0.00  0.70  0.00
  YS02163301YS02001633    1.00   0.00  0.15  0.00  0.85  0.00  0.00  0.00  0.00  0.00
  YS02163601YS02164001    1.00   0.00  0.08  0.00  0.92  0.00  0.00  0.00  0.00  0.00
  YS02164001YS02001641    1.00   0.01  0.07  0.00  0.92  0.00  0.00  0.00  0.05  0.00
  
  
  *************************
  Conduit Surcharge Summary
  *************************
  
  ----------------------------------------------------------------------------
                                                           Hours        Hours 
                         --------- Hours Full --------   Above Full   Capacity
  Conduit                Both Ends  Upstream  Dnstream   Normal Flow   Limited
  ----------------------------------------------------------------------------
  WS02003072WS02003073        0.01      0.01      0.01      1.76         0.01
  WS02004403WS02004404        0.01      0.01      0.03      0.01         0.01
  WS02004404WS02004405        0.01      0.03      0.01      2.00         0.01
  WS02004405WS02004406        0.01      0.01      0.01      1.01         0.01
  WS02006109WS02006110        1.00      1.00      1.66      1.15         0.01
  WS02006110WS02006113        0.01      0.01      1.65      0.01         0.01
  WS02006111WS02006112        0.01      0.01      1.73      0.01         0.01
  WS02006112WS02006115        0.01      0.01      1.24      0.01         0.01
  WS02006228WS02006109        1.63      1.66      1.63      1.76         1.63
  WS02006229WS02006228        1.63      1.63      1.63      1.70         1.62
  WS02006230WS02006229        1.67      1.69      1.67      2.34         1.67
  WS02006231WS02006230        1.03      1.03      1.24      2.15         0.01
  WS02006232WS02006231        1.17      1.17      1.66      1.25         0.01
  WS02006234WS02006232        1.59      1.59      1.66      1.23         1.22
  WS02006235WS02006234        1.44      1.44      1.59      2.05         0.02
  WS02006238WS02006235        1.61      1.61      1.66      0.01         0.01
  WS02006239WS02006238        1.64      1.65      1.64      1.66         1.47
  WS02006240WS02006239        1.60      1.64      1.60      1.66         1.38
  WS02006242WS02006240        1.62      1.62      1.65      1.73         0.01
  WS02006243WS02006242        1.63      1.63      1.65      0.01         0.05
  WS02006245WS02006243        1.62      1.62      1.63      0.63         0.58
  WS02006247WS02006245        1.62      1.63      1.62      1.86         1.61
  WS02006248WS02006247        1.62      1.62      1.62      0.01         0.05
  WS02006249WS02006248        1.61      1.62      1.61      1.84         0.01
  WS02006251WS02006249        1.61      1.61      1.61      1.72         1.53
  WS02006252WS02006251        1.80      1.80      1.80      1.80         0.01
  WS02006256WS02006235        2.05      2.09      3.41      1.39         0.01
  YS02001580YS02001583        0.61      0.61      0.66      0.01         0.01
  YS02001583YS02001586        0.62      0.62      0.75      0.01         0.01
  YS02001586YS02001590        0.76      0.76      0.82      0.01         0.01
  YS02001590YS02001593        0.83      0.83      0.84      0.88         0.01
  YS02001593YS02001596        0.84      0.84      0.94      0.01         0.01
  YS02001596YS02001600        0.99      0.99      1.10      0.01         0.01
  YS02001600YS02001601        1.17      1.17      1.51      0.01         0.01
  YS02001601YS02001602        1.38      1.38      1.54      1.10         0.01
  YS02001602YS02001605        1.31      1.31      1.38      2.19         0.01
  YS02001605YS02001607        1.26      1.31      1.26      1.49         1.26
  YS02001607YS02001610        0.82      0.82      0.84      0.01         0.01
  YS02001610YS02001613        0.81      0.81      0.84      0.01         0.01
  YS02001613YS02001616        0.77      0.77      0.81      0.01         0.01
  YS02001616YS02001619        0.75      0.75      0.77      0.01         0.02
  YS02001619YS02001622        0.75      0.75      0.75      0.81         0.72
  YS02001622YS02001625        0.75      0.75      0.94      0.01         0.01
  YS02001625YS02001629        0.70      0.70      0.94      0.01         0.01
  YS02001629YS02163301        0.94      0.94      0.95      0.04         0.13
  YS02001633YS02163601        0.97      0.97      1.00      0.33         0.31
  YS02001641YS02001644        0.89      0.92      0.89      1.57         0.88
  YS02001644YS02001647        0.69      0.69      0.89      0.04         0.01
  YS02001647YS02001649        0.69      0.69      0.83      0.01         0.01
  YS02001649YS02001757        0.82      0.83      0.90      0.05         0.03
  YS02001652YS02001649        0.64      0.64      0.83      0.01         0.01
  YS02001655YS02001652        0.44      0.44      0.61      0.01         0.01
  YS02001658YS02001655        0.20      0.20      0.44      0.01         0.01
  YS02001661YS02001658        0.02      0.02      0.20      0.01         0.01
  YS02001664YS02001661        0.01      0.01      0.08      0.01         0.01
  YS02001745YS02001748        0.01      0.01      0.15      0.01         0.01
  YS02001748YS02001751        0.19      0.19      0.30      0.01         0.01
  YS02001751YS02001754        0.30      0.30      0.51      0.01         0.01
  YS02001754YS02001757        0.56      0.56      0.90      0.01         0.01
  YS02001757CaochengTiaoxuchi        0.90      0.90      1.41      0.33         0.32
  YS02001759YS02001757        0.80      0.80      0.90      0.01         0.02
  YS02001762YS02001759        0.76      0.76      0.80      0.01         0.02
  YS02001765YS02001762        0.71      0.71      0.76      0.01         0.01
  YS02001767YS02001765        0.67      0.67      0.71      0.01         0.02
  YS02001770YS02001767        0.67      0.67      0.67      0.50         0.45
  YS02001774YS02001770        0.65      0.65      0.74      0.01         0.01
  YS02001779YS02001774        0.50      0.50      0.74      0.01         0.01
  YS02001783YS02001784        0.47      0.50      0.47      0.63         0.47
  YS02001784YS02001785        0.37      0.47      0.37      0.87         0.37
  YS02001786YS02001788        0.01      0.37      0.01      0.73         0.01
  YS02001790YS02001791        0.01      0.01      0.01      0.46         0.01
  YS02001793JiankangQianchi        0.01      0.01      7.69      0.01         0.01
  YS02001882YS02001884        0.44      0.44      0.45      0.01         0.01
  YS02001884YS02001887        0.48      0.48      0.49      0.01         0.01
  YS02001887YS02001890        0.50      0.50      0.51      0.11         0.01
  YS02001890YS02001895        0.43      0.43      0.53      0.01         0.01
  YS02001895YS02001898        0.42      0.42      0.43      0.01         0.01
  YS02001898YS02001901        0.44      0.44      0.47      0.01         0.01
  YS02001901YS02001904        0.46      0.46      0.47      0.01         0.01
  YS02001904YS02001907        0.46      0.46      0.71      0.01         0.01
  YS02001907YS02006553        0.89      0.89      0.96      0.01         0.01
  YS02001910YS02001907        0.52      0.52      0.69      0.01         0.01
  YS02001915YS02001910        0.44      0.44      0.52      0.01         0.01
  YS02001918YS02001915        0.36      0.36      0.44      0.01         0.01
  YS02001920YS02001918        0.36      0.36      0.37      0.01         0.01
  YS02001923YS02001920        0.31      0.31      0.37      0.01         0.01
  YS02001926YS02001923        0.06      0.06      0.09      0.01         0.01
  YS02001929YS02001926        0.01      0.01      0.09      0.01         0.01
  YS02006553YS02006556        0.61      0.61      0.71      0.01         0.01
  YS02006556YS02006558        0.66      0.66      0.73      0.01         0.01
  YS02006558YS02006561        0.40      0.60      0.40      0.83         0.40
  YS02006561YS02001783        0.32      0.32      0.50      0.01         0.01
  YS02163301YS02001633        0.95      0.95      0.98      0.01         0.01
  YS02163601YS02164001        0.92      0.92      1.00      0.05         0.01
  YS02164001YS02001641        0.92      0.92      0.92      0.72         0.67
  
  
  ***************
  Pumping Summary
  ***************
  
  ---------------------------------------------------------------------------------------------------------
                                                  Min       Avg       Max     Total     Power    % Time Off
                        Percent   Number of      Flow      Flow      Flow    Volume     Usage    Pump Curve
  Pump                 Utilized   Start-Ups       LPS       LPS       LPS  10^6 ltr     Kw-hr    Low   High
  ---------------------------------------------------------------------------------------------------------
  CC-R1                   21.69          11      0.00    683.00    683.00     4.267     79.27    0.0   22.4
  CC-R2                   20.76          11      0.00    683.00    683.00     4.083     75.85    0.0   23.4
  CC-S1                   23.89          11      0.00    200.00    200.00     1.376      7.79    0.0    0.0
  CC-S2                   22.49          11      0.00    200.00    200.00     1.296      7.31    0.0    0.0
  JK-R1                    7.88          12      0.00   1000.00   1000.00     2.268     27.18    0.0    0.0
  JK-R2                    0.16           1      0.00   1000.00   1000.00     0.047      0.36    0.0    0.0
  JK-S                    17.45          16      0.00    300.00    300.00     1.508     20.93    0.0    0.0
  XR-1                    97.91           2      0.00     95.00     95.00     2.679      9.60    0.0    0.0
  XR-2                    93.94           2      0.00     95.00     95.00     2.570      8.76    0.0    0.0
  XR-3                     0.00           1      0.00     95.00     95.00     0.000      0.00    0.0    0.0
  XR-4                     0.00           1      0.00     95.00     95.00     0.000      0.00    0.0    0.0
  

  Analysis begun on:  Wed Nov  5 16:30:33 2025
  Analysis ended on:  Wed Nov  5 16:30:35 2025
  Total elapsed time: 00:00:02