
  EPA STORM WATER MANAGEMENT MODEL - VERSION 5.2 (Build 5.2.4)
  PYSWMM TOOLKIT API - VERSION v1.0 (2023-11-27)
  ------------------------------------------------------------

  WARNING 04: minimum elevation drop used for Conduit WS02004404WS02004405
  WARNING 03: negative offset ignored for Link YS02001904YS02001907
  
  ****************
  Analysis Options
  ****************
  Flow Units ............... LPS
  Process Models:
    Rainfall/Runoff ........ YES
    RDII ................... NO
    Snowmelt ............... NO
    Groundwater ............ NO
    Flow Routing ........... YES
    Ponding Allowed ........ NO
    Water Quality .......... NO
  Infiltration Method ...... HORTON
  Flow Routing Method ...... DYNWAVE
  Surcharge Method ......... EXTRAN
  Starting Date ............ 08/28/2015 08:00:00
  Ending Date .............. 08/28/2015 16:00:00
  Antecedent Dry Days ...... 8.0
  Report Time Step ......... 00:01:00
  Wet Time Step ............ 00:01:00
  Dry Time Step ............ 00:01:00
  Routing Time Step ........ 30.00 sec
  Variable Time Step ....... YES
  Maximum Trials ........... 8
  Number of Threads ........ 4
  Head Tolerance ........... 0.001500 m
  
  
  **************************        Volume         Depth
  Runoff Quantity Continuity     hectare-m            mm
  **************************     ---------       -------
  Initial LID Storage ......         0.049         1.488
  Total Precipitation ......         0.935        28.186
  Evaporation Loss .........         0.000         0.000
  Infiltration Loss ........         0.067         2.028
  Surface Runoff ...........         0.645        19.454
  Final Storage ............         0.272         8.204
  Continuity Error (%) .....        -0.040
  
  
  **************************        Volume        Volume
  Flow Routing Continuity        hectare-m      10^6 ltr
  **************************     ---------     ---------
  Dry Weather Inflow .......         0.602         6.020
  Wet Weather Inflow .......         0.645         6.451
  Groundwater Inflow .......         0.000         0.000
  RDII Inflow ..............         0.000         0.000
  External Inflow ..........         0.105         1.045
  External Outflow .........         1.268        12.683
  Flooding Loss ............         0.056         0.560
  Evaporation Loss .........         0.000         0.000
  Exfiltration Loss ........         0.000         0.000
  Initial Stored Volume ....         0.303         3.031
  Final Stored Volume ......         0.334         3.338
  Continuity Error (%) .....        -0.200
  
  
  *************************
  Highest Continuity Errors
  *************************
  Node YS02001884 (5.91%)
  Node YS02001583 (-5.11%)
  Node YS02001774 (2.66%)
  Node YS02001907 (1.43%)
  Node YS02001890 (1.30%)
  
  
  ***************************
  Time-Step Critical Elements
  ***************************
  Link WS02004404WS02004405 (46.58%)
  Link WS02006238WS02006235 (17.90%)
  Link WS02006252WS02006251 (9.13%)
  Link WS02006235WS02006234 (7.82%)
  Link WS02003066WSF200 (5.52%)
  
  
  ********************************
  Highest Flow Instability Indexes
  ********************************
  Link WS02006113WS02006111 (26)
  Link WS02006111WS02006112 (19)
  Link WS02006110WS02006113 (15)
  Link WS02006256WS02006235 (8)
  Link YS02006558YS02006561 (7)
  
  
  *********************************
  Most Frequent Nonconverging Nodes
  *********************************
  Node CC-1 (6.27%)
  Node CC-2 (6.27%)
  Node JK-1 (6.27%)
  Node JK-2 (6.27%)
  Node WSC (6.27%)
  
  
  *************************
  Routing Time Step Summary
  *************************
  Minimum Time Step           :     0.01 sec
  Average Time Step           :     3.76 sec
  Maximum Time Step           :     7.04 sec
  % of Time in Steady State   :     0.00
  Average Iterations per Step :     2.61
  % of Steps Not Converging   :     6.27
  Time Step Frequencies       :
     30.000 - 13.228 sec      :     0.00 %
     13.228 -  5.833 sec      :    31.67 %
      5.833 -  2.572 sec      :    31.36 %
      2.572 -  1.134 sec      :    22.79 %
      1.134 -  0.500 sec      :    14.18 %
  
  
  ***************************
  Subcatchment Runoff Summary
  ***************************
  
  ------------------------------------------------------------------------------------------------------------------------------
                            Total      Total      Total      Total     Imperv       Perv      Total       Total     Peak  Runoff
                           Precip      Runon       Evap      Infil     Runoff     Runoff     Runoff      Runoff   Runoff   Coeff
  Subcatchment                 mm         mm         mm         mm         mm         mm         mm    10^6 ltr      LPS
  ------------------------------------------------------------------------------------------------------------------------------
  sub60                     28.19       0.00       0.00       1.23      18.21       1.38      19.60        0.26   174.18   0.695
  sub61                     28.19       0.00       0.00       1.89      18.20       2.03      20.23        0.37   250.32   0.718
  sub62                     28.19       0.00       0.00       0.84      19.39       0.94      20.33        0.56   346.32   0.721
  sub63                     28.19       0.00       0.00       3.46      15.59       3.23      18.82        0.43   270.94   0.668
  sub64                     28.19       0.00       0.00       1.66      17.73       1.63      19.37        0.47   272.14   0.687
  sub65                     28.19       0.00       0.00       1.52      19.13       1.49      20.62        0.57   315.90   0.732
  sub66                     28.19       0.00       0.00       3.95      15.04       2.53      17.57        0.82   385.69   0.623
  sub67                     28.19       0.00       0.00       0.83      19.89       0.99      20.88        0.39   277.29   0.741
  sub68                     28.19       0.00       0.00       1.45      17.56       1.56      19.12        0.53   342.28   0.678
  sub69                     28.19       0.00       0.00       1.28      18.91       2.07      20.98        0.78   415.75   0.744
  sub70                     28.19       0.00       0.00       4.20      15.12       3.64      18.77        0.54   226.09   0.666
  sub71                     28.19       0.00       0.00       0.77      17.61       0.84      18.45        0.48   280.94   0.655
  sub72                     28.19       0.00       0.00       0.73      19.00       0.77      19.77        0.27   141.76   0.702
  

  ***********************
  LID Performance Summary
  ***********************

  --------------------------------------------------------------------------------------------------------------------
                                         Total      Evap     Infil   Surface    Drain    Initial     Final  Continuity
                                        Inflow      Loss      Loss   Outflow   Outflow   Storage   Storage       Error
  Subcatchment      LID Control             mm        mm        mm        mm        mm        mm        mm           %
  --------------------------------------------------------------------------------------------------------------------
  sub60             GreenRoof            28.19      0.00      0.00      0.00      0.00      7.05     35.27       -0.10
  sub61             GreenRoof            28.19      0.00      0.00      0.00      0.00      7.05     35.27       -0.10
  sub62             GreenRoof            28.19      0.00      0.00      0.00      0.00      7.05     35.27       -0.10
  sub63             GreenRoof            28.19      0.00      0.00      0.00      0.00      7.05     35.27       -0.10
  sub64             GreenRoof            28.19      0.00      0.00      0.00      0.00      7.05     35.27       -0.10
  sub65             GreenRoof            28.19      0.00      0.00      0.00      0.00      7.05     35.27       -0.10
  sub66             GreenRoof            28.19      0.00      0.00      0.00      0.00      7.05     35.27       -0.10
  sub67             GreenRoof            28.19      0.00      0.00      0.00      0.00      7.05     35.27       -0.10
  sub68             GreenRoof            28.19      0.00      0.00      0.00      0.00      7.05     35.27       -0.10
  sub69             GreenRoof            28.19      0.00      0.00      0.00      0.00      7.05     35.27       -0.10
  sub70             GreenRoof            28.19      0.00      0.00      0.00      0.00      7.05     35.27       -0.10
  sub71             GreenRoof            28.19      0.00      0.00      0.00      0.00      7.05     35.27       -0.10
  sub72             GreenRoof            28.19      0.00      0.00      0.00      0.00      7.05     35.27       -0.10
  
  ******************
  Node Depth Summary
  ******************
  
  ---------------------------------------------------------------------------------
                                 Average  Maximum  Maximum  Time of Max    Reported
                                   Depth    Depth      HGL   Occurrence   Max Depth
  Node                 Type       Meters   Meters   Meters  days hr:min      Meters
  ---------------------------------------------------------------------------------
  WS02001211           JUNCTION     0.59     0.64     5.48     0  03:07        0.64
  WS02001212           JUNCTION     0.33     0.38     5.45     0  03:06        0.38
  WS02001213           JUNCTION     0.52     0.65     5.41     0  03:06        0.65
  WS02003059           JUNCTION     0.58     0.72     5.40     0  03:06        0.72
  WS02003060           JUNCTION     0.29     0.45     5.38     0  03:04        0.45
  WS02003066           JUNCTION     0.14     0.30     5.85     0  02:44        0.30
  WS02003067           JUNCTION     0.41     0.70     6.02     0  02:44        0.70
  WS02003069           JUNCTION     0.32     0.51     5.10     0  03:05        0.51
  WS02003072           JUNCTION     0.38     0.58     4.95     0  03:06        0.58
  WS02003073           JUNCTION     0.22     0.35     4.41     0  03:06        0.35
  WS02004138           JUNCTION     0.13     0.14     7.39     0  00:29        0.14
  WS02004139           JUNCTION     0.53     0.58     5.49     0  03:08        0.58
  WS02004401           JUNCTION     0.49     0.85     6.85     0  02:41        0.85
  WS02004402           JUNCTION     0.52     0.88     6.84     0  02:42        0.88
  WS02004403           JUNCTION     0.55     0.89     6.82     0  02:42        0.89
  WS02004404           JUNCTION     0.62     0.96     6.81     0  02:42        0.96
  WS02004405           JUNCTION     0.62     0.96     6.81     0  02:42        0.96
  WS02004406           JUNCTION     0.63     0.96     6.79     0  02:42        0.96
  WS02004407           JUNCTION     0.12     0.30     6.61     0  02:42        0.30
  WS02004409           JUNCTION     0.28     0.67     6.44     0  02:43        0.67
  WS02004410           JUNCTION     0.31     0.68     6.40     0  02:43        0.68
  WS02004411           JUNCTION     0.33     0.69     6.37     0  02:43        0.69
  WS02004412           JUNCTION     0.36     0.70     6.34     0  02:43        0.70
  WS02004413           JUNCTION     0.51     0.86     6.33     0  02:44        0.86
  WS02006109           JUNCTION     0.54     1.02     7.64     0  02:19        1.00
  WS02006110           JUNCTION     0.55     0.97     7.56     0  03:05        0.97
  WS02006111           JUNCTION     0.13     0.29     6.99     0  02:21        0.29
  WS02006112           JUNCTION     0.63     1.05     6.93     0  03:04        1.05
  WS02006113           JUNCTION     0.19     0.46     7.35     0  02:32        0.46
  WS02006115           JUNCTION     0.37     0.75     6.89     0  02:41        0.75
  WS02006116           JUNCTION     0.46     0.83     6.87     0  02:41        0.83
  WS02006228           JUNCTION     0.53     1.08     7.73     0  03:05        1.02
  WS02006229           JUNCTION     0.50     1.10     7.79     0  03:05        1.01
  WS02006230           JUNCTION     0.49     1.26     8.00     0  03:05        1.10
  WS02006231           JUNCTION     0.31     1.00     8.13     0  03:05        0.85
  WS02006232           JUNCTION     0.43     1.11     8.15     0  02:19        1.05
  WS02006234           JUNCTION     0.36     1.96     9.12     0  02:18        1.96
  WS02006235           JUNCTION     0.40     1.45     8.61     0  02:18        1.45
  WS02006238           JUNCTION     0.42     1.47     8.62     0  02:18        1.47
  WS02006239           JUNCTION     0.38     1.30     8.51     0  03:05        1.16
  WS02006240           JUNCTION     0.36     1.25     8.54     0  03:05        1.13
  WS02006242           JUNCTION     0.41     1.29     8.56     0  03:05        1.29
  WS02006243           JUNCTION     0.34     1.17     8.59     0  03:05        1.12
  WS02006245           JUNCTION     0.34     1.48     8.96     0  03:05        1.48
  WS02006247           JUNCTION     0.36     1.47     8.97     0  03:05        1.47
  WS02006248           JUNCTION     0.33     1.10     8.69     0  03:05        1.10
  WS02006249           JUNCTION     0.36     1.09     8.69     0  02:18        1.09
  WS02006251           JUNCTION     0.35     1.45     9.12     0  02:19        1.45
  WS02006252           JUNCTION     0.23     1.50     9.74     0  00:00        1.03
  WS02006256           JUNCTION     0.97     2.35     9.28     0  00:00        2.35
  WSF200               JUNCTION     0.12     0.31     5.54     0  02:44        0.31
  YS02001580           JUNCTION     0.03     1.05     9.59     0  02:15        0.58
  YS02001583           JUNCTION     0.06     1.14     9.64     0  02:15        0.62
  YS02001586           JUNCTION     0.13     1.13     9.30     0  02:15        0.95
  YS02001590           JUNCTION     0.22     1.40     9.26     0  02:12        1.22
  YS02001593           JUNCTION     0.16     1.46     9.32     0  02:12        1.17
  YS02001596           JUNCTION     0.23     1.68     9.10     0  02:15        1.57
  YS02001600           JUNCTION     0.30     1.87     9.00     0  02:15        1.82
  YS02001601           JUNCTION     0.49     2.06     8.90     0  02:12        2.06
  YS02001602           JUNCTION     0.40     1.87     8.77     0  02:14        1.87
  YS02001605           JUNCTION     0.36     1.78     8.68     0  02:14        1.78
  YS02001607           JUNCTION     0.34     1.68     8.53     0  02:14        1.64
  YS02001610           JUNCTION     0.38     1.68     8.48     0  02:14        1.68
  YS02001613           JUNCTION     0.34     1.70     8.54     0  02:14        1.67
  YS02001616           JUNCTION     0.27     1.61     8.52     0  02:14        1.61
  YS02001619           JUNCTION     0.25     1.61     8.54     0  02:14        1.58
  YS02001622           JUNCTION     0.24     1.61     8.51     0  02:14        1.54
  YS02001625           JUNCTION     0.49     1.77     8.37     0  02:14        1.71
  YS02001629           JUNCTION     0.35     1.85     8.40     0  02:14        1.66
  YS02001633           JUNCTION     0.43     1.76     8.22     0  02:14        1.51
  YS02001641           JUNCTION     0.41     1.38     7.82     0  02:14        1.21
  YS02001644           JUNCTION     0.40     1.30     7.73     0  02:14        1.12
  YS02001647           JUNCTION     0.19     0.75     7.36     0  02:15        0.73
  YS02001649           JUNCTION     0.22     0.87     7.26     0  02:16        0.86
  YS02001652           JUNCTION     0.12     0.65     7.25     0  02:16        0.63
  YS02001655           JUNCTION     0.07     0.41     7.26     0  02:16        0.38
  YS02001658           JUNCTION     0.05     0.23     7.37     0  02:13        0.23
  YS02001661           JUNCTION     0.11     0.29     7.69     0  02:14        0.29
  YS02001664           JUNCTION     0.05     0.20     8.12     0  02:14        0.20
  YS02001745           JUNCTION     0.04     0.18     7.69     0  02:13        0.18
  YS02001748           JUNCTION     0.05     0.20     7.28     0  02:13        0.20
  YS02001751           JUNCTION     0.05     0.28     7.16     0  02:19        0.28
  YS02001754           JUNCTION     0.09     0.57     7.18     0  02:20        0.48
  YS02001757           JUNCTION     0.23     0.90     7.16     0  02:20        0.89
  YS02001759           JUNCTION     0.18     0.80     7.16     0  02:18        0.80
  YS02001762           JUNCTION     0.17     0.75     7.15     0  02:21        0.74
  YS02001765           JUNCTION     0.15     0.71     7.16     0  02:21        0.67
  YS02001767           JUNCTION     0.15     0.67     7.16     0  02:18        0.66
  YS02001770           JUNCTION     0.16     0.67     7.17     0  02:18        0.67
  YS02001774           JUNCTION     0.23     0.75     7.17     0  02:17        0.74
  YS02001779           JUNCTION     0.07     0.49     7.18     0  02:17        0.49
  YS02001783           JUNCTION     0.19     0.77     6.91     0  02:17        0.77
  YS02001784           JUNCTION     0.21     0.76     6.82     0  02:17        0.75
  YS02001786           JUNCTION     0.18     0.62     6.65     0  02:17        0.62
  YS02001788           JUNCTION     0.13     0.49     6.47     0  02:18        0.49
  YS02001790           JUNCTION     0.16     0.58     6.23     0  02:19        0.58
  YS02001791           JUNCTION     0.10     0.35     5.82     0  02:18        0.35
  YS02001793           JUNCTION     0.05     0.18     5.01     0  02:18        0.17
  YS02001882           JUNCTION     0.23     0.82     7.53     0  02:18        0.81
  YS02001884           JUNCTION     0.31     0.91     7.53     0  02:18        0.91
  YS02001887           JUNCTION     0.39     1.00     7.53     0  02:18        0.99
  YS02001890           JUNCTION     0.42     1.02     7.53     0  02:18        1.02
  YS02001895           JUNCTION     0.20     0.78     7.53     0  02:17        0.78
  YS02001898           JUNCTION     0.21     0.79     7.53     0  02:17        0.78
  YS02001901           JUNCTION     0.31     0.92     7.52     0  02:18        0.91
  YS02001904           JUNCTION     0.29     0.90     7.53     0  02:17        0.89
  YS02001907           JUNCTION     0.60     1.24     7.53     0  02:17        1.23
  YS02001910           JUNCTION     0.40     1.03     7.54     0  02:17        1.02
  YS02001915           JUNCTION     0.22     0.82     7.54     0  02:17        0.82
  YS02001918           JUNCTION     0.09     0.47     7.54     0  02:17        0.47
  YS02001920           JUNCTION     0.17     0.55     7.56     0  02:18        0.54
  YS02001923           JUNCTION     0.05     0.29     7.55     0  02:18        0.27
  YS02001926           JUNCTION     0.11     0.31     7.76     0  02:15        0.31
  YS02001929           JUNCTION     0.05     0.18     7.87     0  02:15        0.18
  YS02006553           JUNCTION     0.61     1.23     7.51     0  02:17        1.21
  YS02006556           JUNCTION     0.58     1.19     7.50     0  02:17        1.17
  YS02006558           JUNCTION     0.62     1.22     7.49     0  02:17        1.22
  YS02006561           JUNCTION     0.11     0.40     7.06     0  02:17        0.40
  YS02163301           JUNCTION     0.37     1.80     8.31     0  02:14        1.57
  YS02163601           JUNCTION     0.46     1.62     8.02     0  02:14        1.38
  YS02164001           JUNCTION     0.40     1.45     7.90     0  02:14        1.24
  CC-1                 OUTFALL      0.00     0.00     0.00     0  00:00        0.00
  CC-2                 OUTFALL      0.00     0.00     0.00     0  00:00        0.00
  JK-1                 OUTFALL      0.00     0.00     0.00     0  00:00        0.00
  JK-2                 OUTFALL      0.00     0.00     0.00     0  00:00        0.00
  WSC                  OUTFALL      0.22     0.35     1.02     0  03:07        0.35
  CC-storage           STORAGE      0.74     1.33     6.83     0  02:35        1.33
  JK-storage           STORAGE      2.66     4.21     5.01     0  02:19        4.20
  XR-storage           STORAGE      7.86     9.26     7.26     0  08:00        9.26
  
  
  *******************
  Node Inflow Summary
  *******************
  
  -------------------------------------------------------------------------------------------------
                                  Maximum  Maximum                  Lateral       Total        Flow
                                  Lateral    Total  Time of Max      Inflow      Inflow     Balance
                                   Inflow   Inflow   Occurrence      Volume      Volume       Error
  Node                 Type           LPS      LPS  days hr:min    10^6 ltr    10^6 ltr     Percent
  -------------------------------------------------------------------------------------------------
  WS02001211           JUNCTION      7.35   200.67     0  03:14       0.212        5.44       0.611
  WS02001212           JUNCTION      0.00   201.94     0  03:11           0        5.41       0.290
  WS02001213           JUNCTION      0.00   203.98     0  03:13           0        5.39       0.331
  WS02003059           JUNCTION      0.00   209.41     0  03:12           0        5.38       0.592
  WS02003060           JUNCTION     16.53   750.36     0  03:04       0.476        8.67       0.162
  WS02003066           JUNCTION      0.00   536.40     0  02:44           0        2.84       0.043
  WS02003067           JUNCTION      0.00   536.38     0  02:44           0        2.85       0.141
  WS02003069           JUNCTION      0.32   750.68     0  03:04     0.00922        8.65       0.171
  WS02003072           JUNCTION      0.00   750.68     0  03:06           0        8.64       0.234
  WS02003073           JUNCTION      1.82   752.50     0  03:06      0.0524        8.67       0.240
  WS02004138           JUNCTION      0.00   380.00     0  00:00           0        5.25       0.053
  WS02004139           JUNCTION      0.32   191.16     0  00:29     0.00924        5.26       0.509
  WS02004401           JUNCTION      0.00   537.43     0  02:41           0        2.94       0.337
  WS02004402           JUNCTION      0.00   537.29     0  02:42           0        2.93       0.344
  WS02004403           JUNCTION      0.00   536.93     0  02:42           0        2.92       0.337
  WS02004404           JUNCTION      0.16   537.14     0  02:42     0.00467        2.92       0.282
  WS02004405           JUNCTION      0.04   537.03     0  02:42      0.0011        2.91       0.421
  WS02004406           JUNCTION      0.00   537.14     0  02:43           0         2.9       0.705
  WS02004407           JUNCTION      0.00   536.82     0  02:42           0        2.88       0.032
  WS02004409           JUNCTION      0.00   536.71     0  02:42           0        2.88       0.077
  WS02004410           JUNCTION      0.00   536.62     0  02:43           0        2.87       0.135
  WS02004411           JUNCTION      0.00   536.55     0  02:43           0        2.87       0.178
  WS02004412           JUNCTION      0.00   536.49     0  02:43           0        2.86       0.244
  WS02004413           JUNCTION      0.00   536.48     0  02:44           0        2.86       0.439
  WS02006109           JUNCTION      1.23   543.28     0  02:20      0.0354        2.98       0.277
  WS02006110           JUNCTION      0.00   543.59     0  02:20           0        2.98       0.209
  WS02006111           JUNCTION      0.00   560.56     0  02:41           0        2.97       0.020
  WS02006112           JUNCTION      0.00   543.06     0  02:21           0        2.97       0.589
  WS02006113           JUNCTION      0.00   554.06     0  02:19           0        2.97       0.055
  WS02006115           JUNCTION      0.00   543.72     0  02:27           0        2.95       0.209
  WS02006116           JUNCTION      0.00   538.46     0  02:41           0        2.94       0.100
  WS02006228           JUNCTION      0.00   541.73     0  02:20           0        2.95       0.116
  WS02006229           JUNCTION      0.00   541.63     0  02:19           0        2.96       0.158
  WS02006230           JUNCTION     10.28   580.94     0  03:05       0.296        2.96       0.189
  WS02006231           JUNCTION      0.00   580.56     0  03:05           0        2.66      -0.135
  WS02006232           JUNCTION      0.00   579.70     0  03:05           0        2.67       0.351
  WS02006234           JUNCTION      0.00   575.03     0  03:05           0        2.67      -0.264
  WS02006235           JUNCTION      0.00   568.17     0  03:05           0        2.72       0.302
  WS02006238           JUNCTION      0.00   419.19     0  03:04           0           2      -0.134
  WS02006239           JUNCTION      0.00   419.59     0  03:04           0        1.97      -0.039
  WS02006240           JUNCTION      0.00   422.08     0  03:05           0        1.94      -0.063
  WS02006242           JUNCTION      0.00   420.86     0  03:06           0        1.91      -0.172
  WS02006243           JUNCTION      0.00   420.85     0  03:06           0        1.91      -0.079
  WS02006245           JUNCTION      0.00   421.37     0  03:06           0        1.91       0.508
  WS02006247           JUNCTION      0.00   421.82     0  03:06           0        1.91      -0.014
  WS02006248           JUNCTION      0.00   423.38     0  03:06           0        1.91      -0.122
  WS02006249           JUNCTION      0.00   458.97     0  00:00           0        2.11       0.593
  WS02006251           JUNCTION      0.08   409.42     0  02:19     0.00222        2.11       0.019
  WS02006252           JUNCTION      0.00   400.00     0  00:00           0        2.11      -0.298
  WS02006256           JUNCTION      0.00   300.00     0  00:00           0        1.09      -0.298
  WSF200               JUNCTION      0.00   536.42     0  02:44           0        2.84       0.015
  YS02001580           JUNCTION      0.00   101.83     0  02:15           0     0.00398       0.292
  YS02001583           JUNCTION      0.00   143.64     0  02:14           0      0.0149      -4.859
  YS02001586           JUNCTION    226.09   238.25     0  02:15       0.542       0.554       0.222
  YS02001590           JUNCTION      0.00   238.44     0  02:15           0       0.541      -0.054
  YS02001593           JUNCTION      0.00   238.34     0  02:15           0       0.541      -0.023
  YS02001596           JUNCTION      0.00   238.26     0  02:15           0       0.541      -0.028
  YS02001600           JUNCTION      0.00   238.24     0  02:15           0       0.541      -0.019
  YS02001601           JUNCTION    415.75   646.39     0  02:15       0.777        1.32       0.042
  YS02001602           JUNCTION      0.00   521.31     0  02:14           0        1.28       0.016
  YS02001605           JUNCTION      0.00   521.34     0  02:14           0        1.28       0.018
  YS02001607           JUNCTION      0.00   521.24     0  02:14           0        1.28       0.131
  YS02001610           JUNCTION      0.00   530.75     0  02:14           0        1.28       0.160
  YS02001613           JUNCTION      0.00   536.59     0  02:14           0        1.28       0.109
  YS02001616           JUNCTION      0.00   548.32     0  02:14           0        1.28       0.021
  YS02001619           JUNCTION    385.69   898.28     0  02:14       0.819         2.1      -0.007
  YS02001622           JUNCTION      0.00   889.42     0  02:14           0         2.1      -0.002
  YS02001625           JUNCTION      0.00   906.30     0  02:14           0         2.1       0.416
  YS02001629           JUNCTION      0.00   906.13     0  02:14           0        2.09       0.028
  YS02001633           JUNCTION    316.10  1195.00     0  02:15       0.573        2.66       0.123
  YS02001641           JUNCTION      0.00  1194.65     0  02:15           0        2.66       0.101
  YS02001644           JUNCTION    272.18  1463.98     0  02:15       0.466        3.12       0.102
  YS02001647           JUNCTION      0.00  1469.04     0  02:15           0        3.11       0.011
  YS02001649           JUNCTION      0.00  1760.92     0  02:16           0        3.54       0.014
  YS02001652           JUNCTION      0.00   325.58     0  02:16           0        0.43      -0.240
  YS02001655           JUNCTION      0.15   270.24     0  02:14     0.00443       0.431       0.178
  YS02001658           JUNCTION      0.00   270.45     0  02:14           0       0.427      -0.015
  YS02001661           JUNCTION      0.00   270.68     0  02:14           0       0.427       0.082
  YS02001664           JUNCTION    270.94   270.94     0  02:14       0.427       0.427      -0.012
  YS02001745           JUNCTION    174.18   174.18     0  02:14       0.258       0.258      -0.005
  YS02001748           JUNCTION      0.04   174.24     0  02:13      0.0013       0.259      -0.004
  YS02001751           JUNCTION      0.01   174.84     0  02:13    0.000317       0.259       0.392
  YS02001754           JUNCTION      0.26   210.93     0  02:26     0.00749       0.275      -0.442
  YS02001757           JUNCTION      0.00  2319.45     0  02:18           0        4.77       0.046
  YS02001759           JUNCTION    250.36   498.95     0  02:18       0.372       0.947      -0.011
  YS02001762           JUNCTION      0.00   316.46     0  02:18           0       0.575       0.023
  YS02001765           JUNCTION      0.00   310.23     0  02:18           0       0.575       0.023
  YS02001767           JUNCTION      0.54   304.22     0  02:18      0.0154       0.576       0.020
  YS02001770           JUNCTION    346.47   346.47     0  02:14       0.561        0.59       0.010
  YS02001774           JUNCTION      0.00    83.21     0  02:17           0      0.0435       2.738
  YS02001779           JUNCTION      0.01    43.37     0  02:17    0.000144      0.0135       0.146
  YS02001783           JUNCTION      0.00   849.34     0  02:17           0        1.72       0.017
  YS02001784           JUNCTION      1.06   848.59     0  02:17      0.0305        1.75       0.029
  YS02001786           JUNCTION      0.06   847.73     0  02:17     0.00162        1.75       0.038
  YS02001788           JUNCTION      0.07   847.42     0  02:18     0.00204        1.75       0.017
  YS02001790           JUNCTION      0.15   847.71     0  02:18     0.00446        1.76       0.032
  YS02001791           JUNCTION      0.00   892.16     0  02:19           0        1.76      -0.000
  YS02001793           JUNCTION      0.00   852.74     0  02:18           0        1.76       0.011
  YS02001882           JUNCTION      0.00    29.19     0  02:15           0      0.0111       6.038
  YS02001884           JUNCTION      0.00    49.45     0  02:13           0      0.0424       6.285
  YS02001887           JUNCTION    277.74   277.74     0  02:13       0.401        0.43       1.043
  YS02001890           JUNCTION      0.00   247.06     0  02:14           0       0.394       1.318
  YS02001895           JUNCTION      0.00   241.62     0  02:14           0       0.388       0.340
  YS02001898           JUNCTION      0.00   221.84     0  02:16           0       0.387       0.142
  YS02001901           JUNCTION      0.00   209.83     0  02:16           0       0.389       0.825
  YS02001904           JUNCTION      0.00   215.46     0  02:24           0       0.393       0.745
  YS02001907           JUNCTION      0.00   596.36     0  02:19           0        1.22       1.451
  YS02001910           JUNCTION      0.00   395.87     0  02:19           0       0.837       0.866
  YS02001915           JUNCTION    280.96   386.75     0  02:16       0.483       0.838       0.197
  YS02001918           JUNCTION      0.00   160.46     0  02:20           0       0.356       0.086
  YS02001920           JUNCTION      2.87   157.25     0  02:18      0.0827       0.357       0.298
  YS02001923           JUNCTION      0.04   141.29     0  02:15     0.00109       0.274       0.006
  YS02001926           JUNCTION      0.05   141.67     0  02:15      0.0015       0.273       0.079
  YS02001929           JUNCTION    141.76   141.76     0  02:15       0.272       0.272      -0.008
  YS02006553           JUNCTION      0.00   596.65     0  02:19           0        1.21       0.953
  YS02006556           JUNCTION      0.00   596.64     0  02:19           0        1.22       0.679
  YS02006558           JUNCTION    343.16   846.94     0  02:17       0.551        1.75       0.193
  YS02006561           JUNCTION      0.00   847.42     0  02:17           0        1.72       0.001
  YS02163301           JUNCTION      0.00   880.37     0  02:15           0        2.09       0.067
  YS02163601           JUNCTION      0.11  1194.77     0  02:15     0.00317        2.66       0.180
  YS02164001           JUNCTION      0.00  1194.73     0  02:15           0        2.66       0.084
  CC-1                 OUTFALL       0.00   683.00     0  00:00           0        3.21       0.000
  CC-2                 OUTFALL       0.00   683.00     0  00:00           0       0.205       0.000
  JK-1                 OUTFALL       0.00  1000.00     0  00:00           0        0.57       0.000
  JK-2                 OUTFALL       0.00  1000.00     0  00:00           0      0.0484       0.000
  WSC                  OUTFALL       0.00   752.50     0  03:07           0        8.65       0.000
  CC-storage           STORAGE       0.00  2169.14     0  02:17           0        6.99      -0.322
  JK-storage           STORAGE       0.00   853.36     0  02:18           0        1.91       0.354
  XR-storage           STORAGE     200.00   200.00     0  00:00        5.76        6.36       0.001
  
  
  **********************
  Node Surcharge Summary
  **********************
  
  Surcharging occurs when water rises above the top of the highest conduit.
  ---------------------------------------------------------------------
                                               Max. Height   Min. Depth
                                   Hours       Above Crown    Below Rim
  Node                 Type      Surcharged         Meters       Meters
  ---------------------------------------------------------------------
  WS02006109           JUNCTION        1.26          0.197        1.623
  WS02006110           JUNCTION        0.74          0.064        1.786
  WS02006112           JUNCTION        0.68          0.052        1.628
  WS02006228           JUNCTION        1.25          0.251        1.949
  WS02006229           JUNCTION        1.26          0.296        2.154
  WS02006230           JUNCTION        0.74          0.179        1.391
  WS02006231           JUNCTION        0.76          0.294        1.236
  WS02006232           JUNCTION        1.28          0.410        1.070
  WS02006234           JUNCTION        0.83          1.240        0.000
  WS02006235           JUNCTION        1.25          0.738        0.552
  WS02006238           JUNCTION        1.26          0.751        0.679
  WS02006239           JUNCTION        1.25          0.560        0.730
  WS02006240           JUNCTION        1.25          0.536        0.854
  WS02006242           JUNCTION        1.26          0.560        0.260
  WS02006243           JUNCTION        1.25          0.465        0.305
  WS02006245           JUNCTION        1.24          0.766        0.084
  WS02006247           JUNCTION        1.24          0.760        0.000
  WS02006248           JUNCTION        1.24          0.380        0.000
  WS02006249           JUNCTION        1.24          0.390        0.000
  WS02006251           JUNCTION        0.77          0.422        0.758
  WS02006252           JUNCTION        1.40          1.100        0.000
  WS02006256           JUNCTION        3.48          2.050        0.000
  YS02001580           JUNCTION        0.01          0.450        0.000
  YS02001583           JUNCTION        0.01          0.500        0.000
  YS02001586           JUNCTION        0.17          0.510        0.000
  YS02001590           JUNCTION        0.23          0.750        0.000
  YS02001593           JUNCTION        0.23          0.840        0.000
  YS02001596           JUNCTION        0.31          0.947        0.123
  YS02001600           JUNCTION        0.41          1.190        0.000
  YS02001601           JUNCTION        0.68          1.440        0.000
  YS02001602           JUNCTION        0.58          1.270        0.000
  YS02001605           JUNCTION        0.54          1.180        0.000
  YS02001607           JUNCTION        0.18          0.680        0.000
  YS02001610           JUNCTION        0.20          0.680        0.000
  YS02001613           JUNCTION        0.17          0.700        0.000
  YS02001616           JUNCTION        0.13          0.610        0.000
  YS02001619           JUNCTION        0.12          0.610        0.000
  YS02001622           JUNCTION        0.11          0.608        0.012
  YS02001625           JUNCTION        0.27          0.767        0.013
  YS02001629           JUNCTION        0.01          0.470        0.000
  YS02001633           JUNCTION        0.28          0.742        0.318
  YS02001641           JUNCTION        0.20          0.382        0.718
  YS02001644           JUNCTION        0.15          0.298        0.622
  YS02001907           JUNCTION        0.25          0.227        0.723
  YS02001910           JUNCTION        0.06          0.028        1.072
  YS02006553           JUNCTION        0.26          0.230        0.960
  YS02006556           JUNCTION        0.17          0.146        1.204
  YS02006558           JUNCTION        0.16          0.120        1.280
  YS02163301           JUNCTION        0.27          0.795        0.235
  YS02163601           JUNCTION        0.30          0.618        0.462
  YS02164001           JUNCTION        0.22          0.445        0.655
  
  
  *********************
  Node Flooding Summary
  *********************
  
  Flooding refers to all water that overflows a node, whether it ponds or not.
  --------------------------------------------------------------------------
                                                             Total   Maximum
                                 Maximum   Time of Max       Flood    Ponded
                        Hours       Rate    Occurrence      Volume     Depth
  Node                 Flooded       LPS   days hr:min    10^6 ltr    Meters
  --------------------------------------------------------------------------
  WS02006234              0.01     26.89      0  02:18       0.000     0.000
  WS02006247              0.01      0.49      0  03:05       0.000     0.000
  WS02006248              0.01      0.38      0  03:05       0.000     0.000
  WS02006249              0.76    111.43      0  02:19       0.193     0.000
  WS02006252              0.01    245.63      0  00:00       0.000     0.000
  WS02006256              1.01    293.19      0  00:00       0.333     0.000
  YS02001580              0.01     84.31      0  02:15       0.000     0.000
  YS02001583              0.01     90.54      0  02:15       0.000     0.000
  YS02001586              0.01     65.35      0  02:15       0.001     0.000
  YS02001590              0.01     67.21      0  02:12       0.000     0.000
  YS02001593              0.01     19.90      0  02:12       0.000     0.000
  YS02001600              0.01      0.75      0  02:15       0.000     0.000
  YS02001601              0.11    167.92      0  02:15       0.032     0.000
  YS02001602              0.01     15.72      0  02:15       0.000     0.000
  YS02001605              0.01      3.23      0  02:14       0.000     0.000
  YS02001607              0.01     26.32      0  02:14       0.000     0.000
  YS02001610              0.01     43.12      0  02:15       0.000     0.000
  YS02001613              0.01     11.72      0  02:14       0.000     0.000
  YS02001616              0.01     44.24      0  02:14       0.000     0.000
  YS02001619              0.01     15.28      0  02:14       0.000     0.000
  YS02001629              0.01     78.13      0  02:14       0.000     0.000
  
  
  **********************
  Storage Volume Summary
  **********************
  
  ------------------------------------------------------------------------------------------------
                         Average    Avg   Evap  Exfil     Maximum    Max    Time of Max    Maximum
                          Volume   Pcnt   Pcnt   Pcnt      Volume   Pcnt     Occurrence    Outflow
  Storage Unit           1000 m³   Full   Loss   Loss     1000 m³   Full    days hr:min        LPS
  ------------------------------------------------------------------------------------------------
  CC-storage               2.051   32.0    0.0    0.0       3.711   57.9       0  02:35    1783.53
  JK-storage               0.133   45.8    0.0    0.0       0.211   72.5       0  02:19    2300.00
  XR-storage               0.943   65.5    0.0    0.0       1.111   77.2       0  08:00     380.00
  
  
  ***********************
  Outfall Loading Summary
  ***********************
  
  -----------------------------------------------------------
                         Flow       Avg       Max       Total
                         Freq      Flow      Flow      Volume
  Outfall Node           Pcnt       LPS       LPS    10^6 ltr
  -----------------------------------------------------------
  CC-1                  27.36    683.00    683.00       3.209
  CC-2                   1.27    683.00    683.00       0.205
  JK-1                   7.35   1000.00   1000.00       0.570
  JK-2                   0.27   1000.00   1000.00       0.048
  WSC                   99.92    344.58    752.50       8.649
  -----------------------------------------------------------
  System                27.23   3710.58   3366.23      12.683
  
  
  ********************
  Link Flow Summary
  ********************
  
  -----------------------------------------------------------------------------
                                 Maximum  Time of Max   Maximum    Max/    Max/
                                  |Flow|   Occurrence   |Veloc|    Full    Full
  Link                 Type          LPS  days hr:min     m/sec    Flow   Depth
  -----------------------------------------------------------------------------
  1                    CONDUIT    752.50     0  03:07      3.08    0.26    0.35
  WS02001211WS02001212 CONDUIT    201.94     0  03:11      0.54    0.15    0.51
  WS02001212WS02001213 CONDUIT    203.98     0  03:13      1.04    0.31    0.36
  WS02001213WS02003059 CONDUIT    209.41     0  03:12      0.47    0.35    0.67
  WS02003059WS02003060 CONDUIT    214.46     0  03:47      0.67    0.14    0.58
  WS02003060WS02003069 CONDUIT    750.36     0  03:04      1.77    0.29    0.40
  WS02003066WSF200     CONDUIT    536.42     0  02:44      2.74    0.09    0.23
  WS02003067WS02003066 CONDUIT    536.40     0  02:44      1.21    0.17    0.42
  WS02003069WS02003072 CONDUIT    750.68     0  03:06      1.51    0.36    0.45
  WS02003072WS02003073 CONDUIT    750.68     0  03:06      1.60    1.62    0.43
  WS02004138WS02004139 CONDUIT    190.84     0  00:29      2.17    0.04    0.33
  WS02004139WS02001211 CONDUIT    193.33     0  03:14      0.54    0.24    0.47
  WS02004401WS02004402 CONDUIT    537.29     0  02:42      0.97    0.64    0.86
  WS02004402WS02004403 CONDUIT    536.93     0  02:42      0.97    0.77    0.88
  WS02004403WS02004404 CONDUIT    536.98     0  02:42      0.92    0.39    0.93
  WS02004404WS02004405 CONDUIT    536.99     0  02:42      1.08    5.26    0.96
  WS02004405WS02004406 CONDUIT    537.14     0  02:43      0.99    1.06    0.96
  WS02004406WS02004407 CONDUIT    536.82     0  02:42      1.04    0.24    0.63
  WS02004407WS02004409 CONDUIT    536.71     0  02:42      1.56    0.19    0.48
  WS02004409WS02004410 CONDUIT    536.62     0  02:43      1.05    0.69    0.67
  WS02004410WS02004411 CONDUIT    536.55     0  02:43      0.99    0.73    0.69
  WS02004411WS02004412 CONDUIT    536.49     0  02:43      0.92    0.76    0.69
  WS02004412WS02004413 CONDUIT    536.48     0  02:44      0.82    0.36    0.78
  WS02004413WS02003067 CONDUIT    536.38     0  02:44      1.11    0.23    0.59
  WS02006109WS02006110 CONDUIT    543.59     0  02:20      1.08    1.05    1.00
  WS02006110WS02006113 CONDUIT    554.06     0  02:19      1.33    0.50    0.78
  WS02006111WS02006112 CONDUIT    543.06     0  02:21      1.82    0.26    0.67
  WS02006112WS02006115 CONDUIT    543.72     0  02:27      0.86    0.32    0.87
  WS02006113WS02006111 CONDUIT    560.56     0  02:41      2.47    0.67    0.46
  WS02006115WS02006116 CONDUIT    538.46     0  02:41      1.04    0.69    0.76
  WS02006116WS02004401 CONDUIT    537.43     0  02:41      0.98    0.74    0.84
  WS02006228WS02006109 CONDUIT    542.05     0  02:20      1.08    2.37    1.00
  WS02006229WS02006228 CONDUIT    541.73     0  02:20      1.15    1.79    1.00
  WS02006230WS02006229 CONDUIT    541.63     0  02:19      1.41   12.05    1.00
  WS02006231WS02006230 CONDUIT    570.66     0  03:05      1.54    8.66    1.00
  WS02006232WS02006231 CONDUIT    580.56     0  03:05      1.51    1.22    1.00
  WS02006234WS02006232 CONDUIT    579.70     0  03:05      1.51    1.17    1.00
  WS02006235WS02006234 CONDUIT    575.03     0  03:05      1.49    6.07    1.00
  WS02006238WS02006235 CONDUIT    419.33     0  03:04      1.57    0.94    1.00
  WS02006239WS02006238 CONDUIT    419.19     0  03:04      1.11    1.34    1.00
  WS02006240WS02006239 CONDUIT    419.59     0  03:04      1.24    1.32    1.00
  WS02006242WS02006240 CONDUIT    422.08     0  03:05      1.12    1.68    1.00
  WS02006243WS02006242 CONDUIT    420.86     0  03:06      1.39    0.90    1.00
  WS02006245WS02006243 CONDUIT    420.85     0  03:06      1.45    1.24    1.00
  WS02006247WS02006245 CONDUIT    421.37     0  03:06      1.44    3.34    1.00
  WS02006248WS02006247 CONDUIT    421.82     0  03:06      1.45    0.92    1.00
  WS02006249WS02006248 CONDUIT    423.38     0  03:06      1.37    2.32    1.00
  WS02006251WS02006249 CONDUIT    458.97     0  00:00      1.99    1.32    1.00
  WS02006252WS02006251 CONDUIT    409.34     0  02:19     25.80    1.50    1.00
  WS02006256WS02006235 CONDUIT    289.22     0  02:09      4.23    3.06    1.00
  WSF200WS02003060     CONDUIT    536.50     0  02:44      1.76    0.12    0.32
  YS02001580YS02001583 CONDUIT    101.83     0  02:15      0.64    0.39    1.00
  YS02001583YS02001586 CONDUIT    133.79     0  02:14      0.62    0.20    1.00
  YS02001586YS02001590 CONDUIT    238.44     0  02:15      1.28    0.42    1.00
  YS02001590YS02001593 CONDUIT    238.34     0  02:15      1.02    1.50    1.00
  YS02001593YS02001596 CONDUIT    238.26     0  02:15      1.68    0.38    1.00
  YS02001596YS02001600 CONDUIT    238.24     0  02:15      1.18    0.46    1.00
  YS02001600YS02001601 CONDUIT    238.34     0  02:15      0.84    0.41    1.00
  YS02001601YS02001602 CONDUIT    521.31     0  02:14      1.84    1.88    1.00
  YS02001602YS02001605 CONDUIT    521.34     0  02:14      1.84   11.03    1.00
  YS02001605YS02001607 CONDUIT    521.24     0  02:14      1.84    2.86    1.00
  YS02001607YS02001610 CONDUIT    530.75     0  02:14      0.68    0.50    1.00
  YS02001610YS02001613 CONDUIT    536.59     0  02:14      0.68    0.62    1.00
  YS02001613YS02001616 CONDUIT    548.32     0  02:14      0.70    0.47    1.00
  YS02001616YS02001619 CONDUIT    516.99     0  02:14      0.69    0.90    1.00
  YS02001619YS02001622 CONDUIT    889.42     0  02:14      1.24    1.31    1.00
  YS02001622YS02001625 CONDUIT    906.30     0  02:14      1.15    0.48    1.00
  YS02001625YS02001629 CONDUIT    906.13     0  02:14      1.17    0.43    1.00
  YS02001629YS02163301 CONDUIT    880.37     0  02:15      1.12    1.08    1.00
  YS02001633YS02163601 CONDUIT   1194.66     0  02:15      1.52    1.25    1.00
  YS02001641YS02001644 CONDUIT   1195.18     0  02:15      1.52    3.86    1.00
  YS02001644YS02001647 CONDUIT   1469.04     0  02:15      2.04    0.86    0.87
  YS02001647YS02001649 CONDUIT   1489.71     0  02:15      2.28    0.79    0.79
  YS02001649YS02001757 CONDUIT   1737.21     0  02:17      2.44    1.05    0.87
  YS02001652YS02001649 CONDUIT    342.20     0  02:16      0.71    0.17    0.75
  YS02001655YS02001652 CONDUIT    325.58     0  02:16      1.39    0.16    0.50
  YS02001658YS02001655 CONDUIT    270.09     0  02:14      1.90    0.11    0.31
  YS02001661YS02001658 CONDUIT    270.45     0  02:14      2.05    0.11    0.22
  YS02001664YS02001661 CONDUIT    270.68     0  02:14      1.83    0.08    0.24
  YS02001745YS02001748 CONDUIT    174.20     0  02:13      1.88    0.07    0.18
  YS02001748YS02001751 CONDUIT    174.83     0  02:13      1.58    0.09    0.22
  YS02001751YS02001754 CONDUIT    198.57     0  02:18      1.52    0.10    0.38
  YS02001754YS02001757 CONDUIT    256.63     0  02:20      0.52    0.10    0.72
  YS02001757CaochengTiaoxuchi CONDUIT   2169.14     0  02:17      2.87    0.94    0.95
  YS02001759YS02001757 CONDUIT    464.52     0  02:18      0.92    0.33    0.84
  YS02001762YS02001759 CONDUIT    320.43     0  02:18      0.58    0.37    0.77
  YS02001765YS02001762 CONDUIT    316.46     0  02:18      0.71    0.30    0.73
  YS02001767YS02001765 CONDUIT    310.23     0  02:18      0.82    0.39    0.68
  YS02001770YS02001767 CONDUIT    303.69     0  02:18      0.84    1.20    0.67
  YS02001774YS02001770 CONDUIT     83.21     0  02:17      0.16    0.05    0.69
  YS02001779YS02001774 CONDUIT     43.36     0  02:17      0.09    0.02    0.62
  YS02001783YS02001784 CONDUIT    847.53     0  02:17      1.71    1.17    0.95
  YS02001784YS02001785 CONDUIT    847.68     0  02:17      1.85    1.97    0.86
  YS02001786YS02001788 CONDUIT    847.35     0  02:18      2.29    1.63    0.69
  YS02001788YS02001790 CONDUIT    847.56     0  02:18      2.38    0.62    0.67
  YS02001790YS02001791 CONDUIT    892.16     0  02:19      2.96    0.97    0.58
  YS02001791YS02001793 CONDUIT    852.74     0  02:18      5.98    0.37    0.33
  YS02001793JiankangQianchi CONDUIT    853.36     0  02:18      1.78    0.07    0.59
  YS02001882YS02001884 CONDUIT     29.19     0  02:15      0.07    0.03    0.84
  YS02001884YS02001887 CONDUIT     49.45     0  02:13      0.07    0.07    0.93
  YS02001887YS02001890 CONDUIT    247.06     0  02:14      0.34    0.42    0.98
  YS02001890YS02001895 CONDUIT    241.62     0  02:14      0.36    0.11    0.89
  YS02001895YS02001898 CONDUIT    221.84     0  02:16      0.40    0.38    0.77
  YS02001898YS02001901 CONDUIT    209.83     0  02:16      0.35    0.14    0.85
  YS02001901YS02001904 CONDUIT    215.46     0  02:24      0.35    0.33    0.90
  YS02001904YS02001907 CONDUIT    234.73     0  02:23      0.32    0.08    0.95
  YS02001907YS02006553 CONDUIT    596.65     0  02:19      0.66    0.70    1.00
  YS02001910YS02001907 CONDUIT    397.54     0  02:20      0.51    0.22    1.00
  YS02001915YS02001910 CONDUIT    395.87     0  02:19      0.54    0.20    0.91
  YS02001918YS02001915 CONDUIT    171.94     0  02:20      0.44    0.09    0.64
  YS02001920YS02001918 CONDUIT    160.46     0  02:20      0.65    0.16    0.51
  YS02001923YS02001920 CONDUIT    154.38     0  02:18      0.75    0.07    0.41
  YS02001926YS02001923 CONDUIT    141.26     0  02:15      0.88    0.20    0.26
  YS02001929YS02001926 CONDUIT    141.62     0  02:15      0.96    0.07    0.24
  YS02006553YS02006556 CONDUIT    596.64     0  02:19      0.76    0.51    1.00
  YS02006556YS02006558 CONDUIT    598.11     0  02:19      0.76    0.47    1.00
  YS02006558YS02006561 CONDUIT    847.42     0  02:17      3.35    1.87    0.84
  YS02006561YS02001783 CONDUIT    849.34     0  02:17      2.15    0.44    0.73
  YS02163301YS02001633 CONDUIT    880.81     0  02:15      1.12    0.83    1.00
  YS02163601YS02164001 CONDUIT   1194.73     0  02:15      1.52    1.06    1.00
  YS02164001YS02001641 CONDUIT   1194.65     0  02:15      1.52    1.63    1.00
  CC-R1                PUMP       683.00     0  00:00              1.00
  CC-R2                PUMP       683.00     0  00:00              1.00
  CC-S1                PUMP       200.00     0  00:00              1.00
  CC-S2                PUMP       200.00     0  00:00              1.00
  JK-R1                PUMP      1000.00     0  00:00              1.00
  JK-R2                PUMP      1000.00     0  00:00              1.00
  JK-S                 PUMP       300.00     0  00:00              1.00
  XR-1                 PUMP        95.00     0  00:00              1.00
  XR-2                 PUMP        95.00     0  00:00              1.00
  XR-3                 PUMP        95.00     0  00:00              1.00
  XR-4                 PUMP        95.00     0  00:00              1.00
  
  
  ***************************
  Flow Classification Summary
  ***************************
  
  -------------------------------------------------------------------------------------
                      Adjusted    ---------- Fraction of Time in Flow Class ---------- 
                       /Actual         Up    Down  Sub   Sup   Up    Down  Norm  Inlet 
  Conduit               Length    Dry  Dry   Dry   Crit  Crit  Crit  Crit  Ltd   Ctrl  
  -------------------------------------------------------------------------------------
  1                       1.00   0.00  0.00  0.00  0.00  1.00  0.00  0.00  0.16  0.00
  WS02001211WS02001212    1.00   0.00  0.02  0.00  0.98  0.00  0.00  0.00  0.00  0.00
  WS02001212WS02001213    1.00   0.02  0.00  0.00  0.17  0.00  0.80  0.00  0.00  0.00
  WS02001213WS02003059    1.00   0.00  0.01  0.00  0.99  0.00  0.00  0.00  0.00  0.00
  WS02003059WS02003060    1.00   0.00  0.00  0.00  1.00  0.00  0.00  0.00  0.03  0.00
  WS02003060WS02003069    1.00   0.00  0.00  0.00  0.98  0.02  0.00  0.00  0.74  0.00
  WS02003066WSF200        1.00   0.13  0.00  0.00  0.00  0.87  0.00  0.00  0.77  0.00
  WS02003067WS02003066    1.00   0.10  0.02  0.00  0.88  0.00  0.00  0.00  0.00  0.00
  WS02003069WS02003072    1.00   0.00  0.00  0.00  1.00  0.00  0.00  0.00  0.80  0.00
  WS02003072WS02003073    1.00   0.00  0.00  0.00  0.00  0.00  0.00  1.00  0.00  0.00
  WS02004138WS02004139    1.00   0.00  0.00  0.00  0.97  0.01  0.00  0.02  0.98  0.00
  WS02004139WS02001211    1.00   0.00  0.00  0.00  0.99  0.00  0.00  0.00  0.00  0.00
  WS02004401WS02004402    1.00   0.02  0.00  0.00  0.98  0.00  0.00  0.00  0.00  0.00
  WS02004402WS02004403    1.00   0.02  0.00  0.00  0.97  0.00  0.00  0.00  0.00  0.00
  WS02004403WS02004404    1.00   0.00  0.03  0.00  0.97  0.00  0.00  0.00  0.00  0.00
  WS02004404WS02004405    1.00   0.00  0.00  0.00  1.00  0.00  0.00  0.00  0.00  0.00
  WS02004405WS02004406    1.00   0.00  0.00  0.00  1.00  0.00  0.00  0.00  0.00  0.00
  WS02004406WS02004407    1.00   0.00  0.05  0.00  0.95  0.00  0.00  0.00  0.00  0.00
  WS02004407WS02004409    1.00   0.05  0.00  0.00  0.94  0.01  0.00  0.00  0.94  0.00
  WS02004409WS02004410    1.00   0.05  0.00  0.00  0.95  0.00  0.00  0.00  0.03  0.00
  WS02004410WS02004411    1.00   0.05  0.00  0.00  0.95  0.00  0.00  0.00  0.01  0.00
  WS02004411WS02004412    1.00   0.05  0.00  0.00  0.95  0.00  0.00  0.00  0.00  0.00
  WS02004412WS02004413    1.00   0.05  0.00  0.00  0.94  0.00  0.00  0.00  0.01  0.00
  WS02004413WS02003067    1.00   0.06  0.04  0.00  0.00  0.00  0.90  0.00  0.00  0.00
  WS02006109WS02006110    1.00   0.00  0.01  0.00  0.98  0.00  0.01  0.00  0.00  0.00
  WS02006110WS02006113    1.00   0.01  0.01  0.00  0.98  0.00  0.00  0.00  0.00  0.00
  WS02006111WS02006112    1.00   0.02  0.00  0.00  0.98  0.00  0.00  0.00  0.98  0.00
  WS02006112WS02006115    1.00   0.02  0.00  0.00  0.97  0.00  0.00  0.00  0.00  0.00
  WS02006113WS02006111    1.00   0.02  0.00  0.00  0.00  0.98  0.00  0.00  0.08  0.00
  WS02006115WS02006116    1.00   0.02  0.00  0.00  0.97  0.00  0.00  0.01  0.00  0.00
  WS02006116WS02004401    1.00   0.02  0.00  0.00  0.98  0.00  0.00  0.00  0.00  0.00
  WS02006228WS02006109    1.00   0.00  0.00  0.00  1.00  0.00  0.00  0.00  0.00  0.00
  WS02006229WS02006228    1.00   0.00  0.00  0.00  0.99  0.00  0.00  0.01  0.00  0.00
  WS02006230WS02006229    1.00   0.00  0.00  0.00  0.99  0.00  0.00  0.01  0.00  0.00
  WS02006231WS02006230    1.00   0.00  0.00  0.00  0.16  0.00  0.83  0.00  0.00  0.00
  WS02006232WS02006231    1.00   0.00  0.00  0.00  0.99  0.00  0.01  0.00  0.00  0.00
  WS02006234WS02006232    1.00   0.00  0.00  0.00  1.00  0.00  0.00  0.00  0.42  0.00
  WS02006235WS02006234    1.00   0.00  0.00  0.00  0.52  0.00  0.48  0.00  0.00  0.00
  WS02006238WS02006235    1.00   0.00  0.00  0.00  1.00  0.00  0.00  0.00  0.00  0.00
  WS02006239WS02006238    1.00   0.00  0.00  0.00  1.00  0.00  0.00  0.00  0.57  0.00
  WS02006240WS02006239    1.00   0.00  0.00  0.00  0.37  0.00  0.00  0.63  0.01  0.00
  WS02006242WS02006240    1.00   0.00  0.00  0.00  1.00  0.00  0.00  0.00  0.00  0.00
  WS02006243WS02006242    1.00   0.00  0.00  0.00  0.99  0.00  0.00  0.01  0.77  0.00
  WS02006245WS02006243    1.00   0.00  0.00  0.00  0.41  0.00  0.00  0.59  0.01  0.00
  WS02006247WS02006245    1.00   0.00  0.00  0.00  0.99  0.00  0.00  0.01  0.00  0.00
  WS02006248WS02006247    1.00   0.00  0.00  0.00  0.99  0.00  0.00  0.01  0.22  0.00
  WS02006249WS02006248    1.00   0.00  0.00  0.00  0.27  0.00  0.73  0.00  0.00  0.00
  WS02006251WS02006249    1.00   0.00  0.00  0.00  0.99  0.01  0.00  0.00  0.77  0.00
  WS02006252WS02006251    1.00   0.00  0.79  0.00  0.10  0.00  0.12  0.00  0.00  0.00
  WS02006256WS02006235    1.00   0.00  0.00  0.00  1.00  0.00  0.00  0.00  0.00  0.00
  WSF200WS02003060        1.00   0.00  0.13  0.00  0.72  0.16  0.00  0.00  0.70  0.00
  YS02001580YS02001583    1.00   0.28  0.60  0.00  0.12  0.00  0.00  0.00  0.69  0.00
  YS02001583YS02001586    1.00   0.52  0.31  0.00  0.17  0.00  0.00  0.00  0.70  0.00
  YS02001586YS02001590    1.00   0.13  0.00  0.00  0.33  0.05  0.00  0.50  0.34  0.00
  YS02001590YS02001593    1.00   0.13  0.01  0.00  0.04  0.00  0.82  0.00  0.00  0.00
  YS02001593YS02001596    1.00   0.14  0.00  0.00  0.05  0.01  0.00  0.80  0.01  0.00
  YS02001596YS02001600    1.00   0.14  0.00  0.00  0.11  0.02  0.00  0.74  0.05  0.00
  YS02001600YS02001601    1.00   0.13  0.01  0.00  0.86  0.00  0.00  0.00  0.68  0.00
  YS02001601YS02001602    1.00   0.13  0.02  0.00  0.86  0.00  0.00  0.00  0.00  0.00
  YS02001602YS02001605    1.00   0.14  0.00  0.00  0.86  0.00  0.00  0.00  0.00  0.00
  YS02001605YS02001607    1.00   0.14  0.00  0.00  0.86  0.00  0.00  0.00  0.00  0.00
  YS02001607YS02001610    1.00   0.13  0.01  0.00  0.85  0.00  0.00  0.00  0.03  0.00
  YS02001610YS02001613    1.00   0.13  0.00  0.00  0.87  0.00  0.00  0.00  0.02  0.00
  YS02001613YS02001616    1.00   0.13  0.00  0.00  0.87  0.00  0.00  0.00  0.01  0.00
  YS02001616YS02001619    1.00   0.13  0.00  0.00  0.87  0.00  0.00  0.00  0.00  0.00
  YS02001619YS02001622    1.00   0.13  0.00  0.00  0.87  0.00  0.00  0.00  0.37  0.00
  YS02001622YS02001625    1.00   0.13  0.00  0.00  0.87  0.00  0.00  0.00  0.07  0.00
  YS02001625YS02001629    1.00   0.13  0.08  0.00  0.07  0.00  0.72  0.00  0.00  0.00
  YS02001629YS02163301    1.00   0.17  0.02  0.00  0.81  0.00  0.00  0.00  0.00  0.00
  YS02001633YS02163601    1.00   0.00  0.01  0.00  0.99  0.00  0.00  0.00  0.16  0.00
  YS02001641YS02001644    1.00   0.00  0.01  0.00  0.99  0.00  0.00  0.00  0.00  0.00
  YS02001644YS02001647    1.00   0.00  0.21  0.00  0.79  0.00  0.00  0.00  0.00  0.00
  YS02001647YS02001649    1.00   0.00  0.20  0.00  0.53  0.26  0.00  0.00  0.61  0.00
  YS02001649YS02001757    1.00   0.00  0.00  0.00  0.73  0.27  0.00  0.00  0.57  0.00
  YS02001652YS02001649    1.00   0.00  0.00  0.00  0.96  0.04  0.00  0.00  0.84  0.00
  YS02001655YS02001652    1.00   0.00  0.00  0.00  0.09  0.01  0.00  0.90  0.06  0.00
  YS02001658YS02001655    1.00   0.00  0.15  0.00  0.59  0.26  0.00  0.00  0.80  0.00
  YS02001661YS02001658    1.00   0.15  0.00  0.00  0.46  0.39  0.00  0.00  0.77  0.00
  YS02001664YS02001661    1.00   0.13  0.00  0.00  0.80  0.07  0.00  0.00  0.87  0.00
  YS02001745YS02001748    1.00   0.00  0.00  0.00  0.00  0.00  0.00  1.00  0.00  0.00
  YS02001748YS02001751    1.00   0.00  0.00  0.00  0.79  0.21  0.00  0.00  0.88  0.00
  YS02001751YS02001754    1.00   0.00  0.00  0.00  0.07  0.00  0.00  0.92  0.05  0.00
  YS02001754YS02001757    1.00   0.00  0.00  0.00  1.00  0.00  0.00  0.00  0.91  0.00
  YS02001757CaochengTiaoxuchi    1.00   0.00  0.00  0.00  1.00  0.00  0.00  0.00  0.89  0.00
  YS02001759YS02001757    1.00   0.00  0.00  0.00  1.00  0.00  0.00  0.00  0.68  0.00
  YS02001762YS02001759    1.00   0.00  0.00  0.00  1.00  0.00  0.00  0.00  0.07  0.00
  YS02001765YS02001762    1.00   0.00  0.00  0.00  1.00  0.00  0.00  0.00  0.81  0.00
  YS02001767YS02001765    1.00   0.00  0.00  0.00  1.00  0.00  0.00  0.00  0.00  0.00
  YS02001770YS02001767    1.00   0.00  0.00  0.00  1.00  0.00  0.00  0.00  0.00  0.00
  YS02001774YS02001770    1.00   0.00  0.14  0.00  0.58  0.00  0.28  0.00  0.05  0.00
  YS02001779YS02001774    1.00   0.00  0.00  0.00  1.00  0.00  0.00  0.00  0.86  0.00
  YS02001783YS02001784    1.00   0.00  0.21  0.00  0.79  0.00  0.00  0.00  0.59  0.00
  YS02001784YS02001785    1.00   0.00  0.00  0.00  1.00  0.00  0.00  0.00  0.20  0.00
  YS02001786YS02001788    1.00   0.00  0.00  0.00  0.80  0.20  0.00  0.00  0.00  0.00
  YS02001788YS02001790    1.00   0.00  0.00  0.00  0.22  0.78  0.00  0.00  0.89  0.00
  YS02001790YS02001791    1.00   0.00  0.00  0.00  0.01  0.99  0.00  0.00  0.14  0.00
  YS02001791YS02001793    1.00   0.00  0.00  0.00  0.00  1.00  0.00  0.00  0.00  0.00
  YS02001793JiankangQianchi    1.00   0.00  0.00  0.00  1.00  0.00  0.00  0.00  1.00  0.00
  YS02001882YS02001884    1.00   0.17  0.02  0.00  0.81  0.00  0.00  0.00  0.00  0.00
  YS02001884YS02001887    1.00   0.06  0.05  0.00  0.89  0.00  0.00  0.00  0.00  0.00
  YS02001887YS02001890    1.00   0.00  0.00  0.00  0.97  0.00  0.03  0.00  0.00  0.00
  YS02001890YS02001895    1.00   0.00  0.19  0.00  0.81  0.00  0.00  0.00  0.00  0.00
  YS02001895YS02001898    1.00   0.19  0.00  0.00  0.78  0.00  0.02  0.00  0.00  0.00
  YS02001898YS02001901    1.00   0.19  0.01  0.00  0.80  0.00  0.00  0.00  0.01  0.00
  YS02001901YS02001904    1.00   0.19  0.00  0.00  0.81  0.00  0.00  0.00  0.00  0.00
  YS02001904YS02001907    1.00   0.00  0.19  0.00  0.81  0.00  0.00  0.00  0.00  0.00
  YS02001907YS02006553    1.00   0.00  0.02  0.00  0.98  0.00  0.00  0.00  0.00  0.00
  YS02001910YS02001907    1.00   0.00  0.00  0.00  0.97  0.00  0.00  0.03  0.12  0.00
  YS02001915YS02001910    1.00   0.00  0.00  0.00  0.97  0.03  0.00  0.00  0.19  0.00
  YS02001918YS02001915    1.00   0.00  0.01  0.00  0.98  0.02  0.00  0.00  0.81  0.00
  YS02001920YS02001918    1.00   0.00  0.01  0.00  0.99  0.00  0.00  0.00  0.00  0.00
  YS02001923YS02001920    1.00   0.00  0.00  0.00  1.00  0.00  0.00  0.00  0.98  0.00
  YS02001926YS02001923    1.00   0.00  0.07  0.00  0.00  0.00  0.93  0.00  0.00  0.00
  YS02001929YS02001926    1.00   0.00  0.13  0.00  0.87  0.00  0.00  0.00  0.87  0.00
  YS02006553YS02006556    1.00   0.01  0.00  0.00  0.99  0.00  0.00  0.00  0.03  0.00
  YS02006556YS02006558    1.00   0.00  0.00  0.00  1.00  0.00  0.00  0.00  0.00  0.00
  YS02006558YS02006561    1.00   0.21  0.00  0.00  0.00  0.79  0.00  0.00  0.18  0.00
  YS02006561YS02001783    1.00   0.21  0.00  0.00  0.03  0.76  0.00  0.00  0.73  0.00
  YS02163301YS02001633    1.00   0.00  0.17  0.00  0.83  0.00  0.00  0.00  0.00  0.00
  YS02163601YS02164001    1.00   0.00  0.08  0.00  0.92  0.00  0.00  0.00  0.00  0.00
  YS02164001YS02001641    1.00   0.01  0.07  0.00  0.92  0.00  0.00  0.00  0.06  0.00
  
  
  *************************
  Conduit Surcharge Summary
  *************************
  
  ----------------------------------------------------------------------------
                                                           Hours        Hours 
                         --------- Hours Full --------   Above Full   Capacity
  Conduit                Both Ends  Upstream  Dnstream   Normal Flow   Limited
  ----------------------------------------------------------------------------
  WS02003072WS02003073        0.01      0.01      0.01      1.38         0.01
  WS02004404WS02004405        0.01      0.01      0.01      1.60         0.01
  WS02004405WS02004406        0.01      0.01      0.01      0.66         0.01
  WS02006109WS02006110        0.74      0.74      1.28      0.75         0.01
  WS02006110WS02006113        0.01      0.01      1.27      0.01         0.01
  WS02006111WS02006112        0.01      0.01      1.34      0.01         0.01
  WS02006112WS02006115        0.01      0.01      0.68      0.01         0.01
  WS02006228WS02006109        1.26      1.28      1.26      1.40         1.26
  WS02006229WS02006228        1.25      1.26      1.25      1.35         1.25
  WS02006230WS02006229        1.31      1.33      1.31      2.12         1.31
  WS02006231WS02006230        0.74      0.74      0.76      1.83         0.01
  WS02006232WS02006231        0.76      0.76      1.28      0.77         0.01
  WS02006234WS02006232        1.24      1.24      1.28      0.77         0.77
  WS02006235WS02006234        0.83      0.83      1.25      1.71         0.01
  WS02006238WS02006235        1.25      1.25      1.28      0.01         0.01
  WS02006239WS02006238        1.26      1.26      1.26      1.27         1.24
  WS02006240WS02006239        1.25      1.26      1.25      1.28         1.22
  WS02006242WS02006240        1.25      1.25      1.27      1.33         0.01
  WS02006243WS02006242        1.25      1.25      1.26      0.01         0.01
  WS02006245WS02006243        1.24      1.24      1.25      0.54         0.51
  WS02006247WS02006245        1.24      1.25      1.24      1.48         1.24
  WS02006248WS02006247        1.24      1.24      1.24      0.01         0.01
  WS02006249WS02006248        1.24      1.24      1.24      1.46         0.01
  WS02006251WS02006249        1.23      1.23      1.24      1.34         1.22
  WS02006252WS02006251        1.40      1.40      1.40      1.40         0.01
  WS02006256WS02006235        1.74      1.75      3.47      1.01         0.01
  YS02001580YS02001583        0.01      0.01      0.02      0.01         0.01
  YS02001583YS02001586        0.01      0.01      0.17      0.01         0.01
  YS02001586YS02001590        0.17      0.17      0.23      0.01         0.01
  YS02001590YS02001593        0.23      0.23      0.24      0.23         0.01
  YS02001593YS02001596        0.24      0.24      0.31      0.01         0.01
  YS02001596YS02001600        0.35      0.35      0.41      0.01         0.01
  YS02001600YS02001601        0.45      0.45      0.68      0.01         0.01
  YS02001601YS02001602        0.58      0.58      0.72      0.42         0.01
  YS02001602YS02001605        0.54      0.54      0.58      1.54         0.01
  YS02001605YS02001607        0.51      0.54      0.51      0.64         0.51
  YS02001607YS02001610        0.18      0.18      0.20      0.01         0.01
  YS02001610YS02001613        0.17      0.17      0.20      0.01         0.01
  YS02001613YS02001616        0.13      0.13      0.17      0.01         0.01
  YS02001616YS02001619        0.12      0.12      0.13      0.01         0.01
  YS02001619YS02001622        0.11      0.12      0.11      0.25         0.11
  YS02001622YS02001625        0.11      0.11      0.27      0.01         0.01
  YS02001625YS02001629        0.01      0.01      0.27      0.01         0.01
  YS02001629YS02163301        0.26      0.26      0.27      0.15         0.13
  YS02001633YS02163601        0.28      0.28      0.30      0.18         0.19
  YS02001641YS02001644        0.15      0.20      0.15      0.77         0.15
  YS02001644YS02001647        0.01      0.01      0.15      0.01         0.01
  YS02001649YS02001757        0.01      0.01      0.01      0.02         0.01
  YS02001757CaochengTiaoxuchi        0.01      0.01      0.85      0.01         0.01
  YS02001770YS02001767        0.01      0.01      0.01      0.12         0.01
  YS02001783YS02001784        0.01      0.01      0.01      0.20         0.01
  YS02001784YS02001785        0.01      0.01      0.01      0.35         0.01
  YS02001786YS02001788        0.01      0.01      0.01      0.27         0.01
  YS02001793JiankangQianchi        0.01      0.01      7.70      0.01         0.01
  YS02001890YS02001895        0.01      0.01      0.06      0.01         0.01
  YS02001904YS02001907        0.01      0.01      0.25      0.01         0.01
  YS02001907YS02006553        0.36      0.36      0.41      0.01         0.01
  YS02001910YS02001907        0.06      0.06      0.25      0.01         0.01
  YS02001915YS02001910        0.01      0.01      0.06      0.01         0.01
  YS02006553YS02006556        0.17      0.17      0.25      0.01         0.01
  YS02006556YS02006558        0.22      0.22      0.27      0.01         0.01
  YS02006558YS02006561        0.01      0.16      0.01      0.32         0.01
  YS02163301YS02001633        0.27      0.27      0.30      0.01         0.01
  YS02163601YS02164001        0.22      0.22      0.30      0.07         0.01
  YS02164001YS02001641        0.20      0.22      0.20      0.34         0.20
  
  
  ***************
  Pumping Summary
  ***************
  
  ---------------------------------------------------------------------------------------------------------
                                                  Min       Avg       Max     Total     Power    % Time Off
                        Percent   Number of      Flow      Flow      Flow    Volume     Usage    Pump Curve
  Pump                 Utilized   Start-Ups       LPS       LPS       LPS  10^6 ltr     Kw-hr    Low   High
  ---------------------------------------------------------------------------------------------------------
  CC-R1                   16.31          11      0.00    683.00    683.00     3.208     56.98    0.0   42.0
  CC-R2                    1.04           1      0.00    683.00    683.00     0.205      3.46    0.0  100.0
  CC-S1                   19.08          11      0.00    200.00    200.00     1.099      6.99    0.0    0.0
  CC-S2                   17.46          11      0.00    200.00    200.00     1.006      6.43    0.0    0.0
  JK-R1                    1.98           4      0.00   1000.00   1000.00     0.570      5.63    0.0    0.0
  JK-R2                    0.16           1      0.00   1000.00   1000.00     0.047      0.36    0.0    0.0
  JK-S                    12.64           4      0.00    300.00    300.00     1.092     16.20    0.0    0.0
  XR-1                    97.91           2      0.00     95.00     95.00     2.679      9.60    0.0    0.0
  XR-2                    93.94           2      0.00     95.00     95.00     2.570      8.76    0.0    0.0
  XR-3                     0.00           1      0.00     95.00     95.00     0.000      0.00    0.0    0.0
  XR-4                     0.00           1      0.00     95.00     95.00     0.000      0.00    0.0    0.0
  

  Analysis begun on:  Wed Nov  5 16:31:18 2025
  Analysis ended on:  Wed Nov  5 16:31:21 2025
  Total elapsed time: 00:00:03