
  EPA STORM WATER MANAGEMENT MODEL - VERSION 5.2 (Build 5.2.4)
  PYSWMM TOOLKIT API - VERSION v1.0 (2023-11-27)
  ------------------------------------------------------------

  WARNING 04: minimum elevation drop used for Conduit WS02004404WS02004405
  WARNING 03: negative offset ignored for Link YS02001904YS02001907
  
  ****************
  Analysis Options
  ****************
  Flow Units ............... LPS
  Process Models:
    Rainfall/Runoff ........ YES
    RDII ................... NO
    Snowmelt ............... NO
    Groundwater ............ NO
    Flow Routing ........... YES
    Ponding Allowed ........ NO
    Water Quality .......... NO
  Infiltration Method ...... HORTON
  Flow Routing Method ...... DYNWAVE
  Surcharge Method ......... EXTRAN
  Starting Date ............ 08/28/2015 08:00:00
  Ending Date .............. 08/28/2015 16:00:00
  Antecedent Dry Days ...... 8.0
  Report Time Step ......... 00:01:00
  Wet Time Step ............ 00:01:00
  Dry Time Step ............ 00:01:00
  Routing Time Step ........ 30.00 sec
  Variable Time Step ....... YES
  Maximum Trials ........... 8
  Number of Threads ........ 4
  Head Tolerance ........... 0.001500 m
  
  
  **************************        Volume         Depth
  Runoff Quantity Continuity     hectare-m            mm
  **************************     ---------       -------
  Initial LID Storage ......         0.049         1.488
  Total Precipitation ......         1.730        52.165
  Evaporation Loss .........         0.000         0.000
  Infiltration Loss ........         0.077         2.309
  Surface Runoff ...........         1.264        38.094
  Final Storage ............         0.440        13.280
  Continuity Error (%) .....        -0.055
  
  
  **************************        Volume        Volume
  Flow Routing Continuity        hectare-m      10^6 ltr
  **************************     ---------     ---------
  Dry Weather Inflow .......         0.602         6.020
  Wet Weather Inflow .......         1.264        12.635
  Groundwater Inflow .......         0.000         0.000
  RDII Inflow ..............         0.000         0.000
  External Inflow ..........         0.105         1.045
  External Outflow .........         1.709        17.088
  Flooding Loss ............         0.240         2.400
  Evaporation Loss .........         0.000         0.000
  Exfiltration Loss ........         0.000         0.000
  Initial Stored Volume ....         0.303         3.031
  Final Stored Volume ......         0.330         3.302
  Continuity Error (%) .....        -0.255
  
  
  *************************
  Highest Continuity Errors
  *************************
  Node YS02001884 (5.31%)
  Node YS02001583 (-4.78%)
  Node YS02001774 (2.15%)
  Node WS02006256 (-1.12%)
  
  
  ***************************
  Time-Step Critical Elements
  ***************************
  Link WS02004404WS02004405 (32.24%)
  Link WS02006238WS02006235 (17.96%)
  Link WS02006252WS02006251 (14.68%)
  Link YS02001791YS02001793 (9.42%)
  Link WS02003066WSF200 (8.76%)
  
  
  ********************************
  Highest Flow Instability Indexes
  ********************************
  Link WS02006113WS02006111 (27)
  Link WS02006252WS02006251 (21)
  Link WS02006238WS02006235 (19)
  Link WS02006256WS02006235 (14)
  Link YS02006558YS02006561 (14)
  
  
  *********************************
  Most Frequent Nonconverging Nodes
  *********************************
  Node CC-1 (18.18%)
  Node CC-2 (18.18%)
  Node JK-1 (18.18%)
  Node JK-2 (18.18%)
  Node WSC (18.18%)
  
  
  *************************
  Routing Time Step Summary
  *************************
  Minimum Time Step           :     0.01 sec
  Average Time Step           :     3.26 sec
  Maximum Time Step           :     7.04 sec
  % of Time in Steady State   :     0.00
  Average Iterations per Step :     3.43
  % of Steps Not Converging   :    18.18
  Time Step Frequencies       :
     30.000 - 13.228 sec      :     0.00 %
     13.228 -  5.833 sec      :    23.88 %
      5.833 -  2.572 sec      :    32.10 %
      2.572 -  1.134 sec      :    20.70 %
      1.134 -  0.500 sec      :    23.32 %
  
  
  ***************************
  Subcatchment Runoff Summary
  ***************************
  
  ------------------------------------------------------------------------------------------------------------------------------
                            Total      Total      Total      Total     Imperv       Perv      Total       Total     Peak  Runoff
                           Precip      Runon       Evap      Infil     Runoff     Runoff     Runoff      Runoff   Runoff   Coeff
  Subcatchment                 mm         mm         mm         mm         mm         mm         mm    10^6 ltr      LPS
  ------------------------------------------------------------------------------------------------------------------------------
  sub60                     52.17       0.00       0.00       1.36      34.50       3.47      37.97        0.50   354.91   0.728
  sub61                     52.17       0.00       0.00       2.09      34.47       5.16      39.63        0.73   518.59   0.760
  sub62                     52.17       0.00       0.00       0.92      36.75       2.36      39.10        1.07   710.21   0.750
  sub63                     52.17       0.00       0.00       3.86      29.52       8.52      38.05        0.86   592.82   0.729
  sub64                     52.17       0.00       0.00       1.85      33.61       4.25      37.86        0.91   580.12   0.726
  sub65                     52.17       0.00       0.00       1.70      36.28       3.87      40.15        1.11   676.26   0.770
  sub66                     52.17       0.00       0.00       4.54      28.54       7.46      36.00        1.68   887.93   0.690
  sub67                     52.17       0.00       0.00       0.92      37.68       2.45      40.13        0.75   547.26   0.769
  sub68                     52.17       0.00       0.00       1.61      33.27       3.96      37.23        1.02   708.18   0.714
  sub69                     52.17       0.00       0.00       1.48      35.06       4.72      39.78        1.47   874.02   0.763
  sub70                     52.17       0.00       0.00       4.99      28.08       9.53      37.60        1.09   512.66   0.721
  sub71                     52.17       0.00       0.00       0.85      33.38       2.13      35.51        0.93   585.35   0.681
  sub72                     52.17       0.00       0.00       0.82      36.05       1.98      38.02        0.52   301.46   0.729
  

  ***********************
  LID Performance Summary
  ***********************

  --------------------------------------------------------------------------------------------------------------------
                                         Total      Evap     Infil   Surface    Drain    Initial     Final  Continuity
                                        Inflow      Loss      Loss   Outflow   Outflow   Storage   Storage       Error
  Subcatchment      LID Control             mm        mm        mm        mm        mm        mm        mm           %
  --------------------------------------------------------------------------------------------------------------------
  sub60             GreenRoof            52.17      0.00      0.00      0.00      0.00      7.05     59.31       -0.17
  sub61             GreenRoof            52.17      0.00      0.00      0.00      0.00      7.05     59.31       -0.17
  sub62             GreenRoof            52.17      0.00      0.00      0.00      0.00      7.05     59.31       -0.17
  sub63             GreenRoof            52.17      0.00      0.00      0.00      0.00      7.05     59.31       -0.17
  sub64             GreenRoof            52.17      0.00      0.00      0.00      0.00      7.05     59.31       -0.17
  sub65             GreenRoof            52.17      0.00      0.00      0.00      0.00      7.05     59.31       -0.17
  sub66             GreenRoof            52.17      0.00      0.00      0.00      0.00      7.05     59.31       -0.17
  sub67             GreenRoof            52.17      0.00      0.00      0.00      0.00      7.05     59.31       -0.17
  sub68             GreenRoof            52.17      0.00      0.00      0.00      0.00      7.05     59.31       -0.17
  sub69             GreenRoof            52.17      0.00      0.00      0.00      0.00      7.05     59.31       -0.17
  sub70             GreenRoof            52.17      0.00      0.00      0.00      0.00      7.05     59.31       -0.17
  sub71             GreenRoof            52.17      0.00      0.00      0.00      0.00      7.05     59.31       -0.17
  sub72             GreenRoof            52.17      0.00      0.00      0.00      0.00      7.05     59.31       -0.17
  
  ******************
  Node Depth Summary
  ******************
  
  ---------------------------------------------------------------------------------
                                 Average  Maximum  Maximum  Time of Max    Reported
                                   Depth    Depth      HGL   Occurrence   Max Depth
  Node                 Type       Meters   Meters   Meters  days hr:min      Meters
  ---------------------------------------------------------------------------------
  WS02001211           JUNCTION     0.60     0.64     5.48     0  02:41        0.64
  WS02001212           JUNCTION     0.33     0.38     5.45     0  02:43        0.38
  WS02001213           JUNCTION     0.53     0.65     5.41     0  02:42        0.65
  WS02003059           JUNCTION     0.59     0.72     5.40     0  02:43        0.72
  WS02003060           JUNCTION     0.30     0.45     5.38     0  02:41        0.45
  WS02003066           JUNCTION     0.16     0.30     5.85     0  02:38        0.30
  WS02003067           JUNCTION     0.43     0.70     6.02     0  02:37        0.70
  WS02003069           JUNCTION     0.33     0.51     5.09     0  02:39        0.51
  WS02003072           JUNCTION     0.40     0.57     4.94     0  02:39        0.57
  WS02003073           JUNCTION     0.23     0.35     4.41     0  02:40        0.35
  WS02004138           JUNCTION     0.13     0.14     7.39     0  00:29        0.14
  WS02004139           JUNCTION     0.54     0.58     5.49     0  02:41        0.58
  WS02004401           JUNCTION     0.52     0.85     6.85     0  02:35        0.85
  WS02004402           JUNCTION     0.55     0.87     6.83     0  02:36        0.87
  WS02004403           JUNCTION     0.57     0.89     6.82     0  02:36        0.89
  WS02004404           JUNCTION     0.65     0.96     6.81     0  02:36        0.96
  WS02004405           JUNCTION     0.65     0.95     6.80     0  02:36        0.95
  WS02004406           JUNCTION     0.66     0.95     6.78     0  02:36        0.95
  WS02004407           JUNCTION     0.14     0.29     6.61     0  02:36        0.29
  WS02004409           JUNCTION     0.31     0.66     6.43     0  02:37        0.66
  WS02004410           JUNCTION     0.33     0.68     6.40     0  02:37        0.68
  WS02004411           JUNCTION     0.36     0.69     6.37     0  02:37        0.69
  WS02004412           JUNCTION     0.38     0.70     6.34     0  02:37        0.70
  WS02004413           JUNCTION     0.54     0.85     6.32     0  02:37        0.85
  WS02006109           JUNCTION     0.58     1.23     7.85     0  02:42        1.00
  WS02006110           JUNCTION     0.59     1.22     7.80     0  02:51        0.95
  WS02006111           JUNCTION     0.15     0.29     7.00     0  03:02        0.29
  WS02006112           JUNCTION     0.67     1.11     6.99     0  02:42        1.06
  WS02006113           JUNCTION     0.22     0.46     7.35     0  03:01        0.46
  WS02006115           JUNCTION     0.40     0.75     6.89     0  02:35        0.75
  WS02006116           JUNCTION     0.49     0.83     6.87     0  02:35        0.83
  WS02006228           JUNCTION     0.57     1.34     7.99     0  02:42        1.12
  WS02006229           JUNCTION     0.55     1.41     8.10     0  02:51        1.15
  WS02006230           JUNCTION     0.54     1.70     8.44     0  02:42        1.28
  WS02006231           JUNCTION     0.35     1.37     8.49     0  03:00        1.01
  WS02006232           JUNCTION     0.48     1.53     8.57     0  03:00        1.22
  WS02006234           JUNCTION     0.41     1.45     8.60     0  02:51        1.20
  WS02006235           JUNCTION     0.45     1.50     8.67     0  02:51        1.28
  WS02006238           JUNCTION     0.47     1.54     8.68     0  02:51        1.31
  WS02006239           JUNCTION     0.43     1.54     8.75     0  03:00        1.29
  WS02006240           JUNCTION     0.41     1.53     8.82     0  03:00        1.24
  WS02006242           JUNCTION     0.46     1.55     8.82     0  03:00        1.34
  WS02006243           JUNCTION     0.39     1.43     8.85     0  03:00        1.29
  WS02006245           JUNCTION     0.39     1.33     8.82     0  03:00        1.27
  WS02006247           JUNCTION     0.41     1.27     8.77     0  02:48        1.25
  WS02006248           JUNCTION     0.38     1.10     8.69     0  02:16        1.10
  WS02006249           JUNCTION     0.40     1.09     8.69     0  02:14        1.09
  WS02006251           JUNCTION     0.40     1.37     9.04     0  02:22        1.37
  WS02006252           JUNCTION     0.27     1.50     9.74     0  00:00        0.94
  WS02006256           JUNCTION     1.07     2.35     9.28     0  00:00        2.35
  WSF200               JUNCTION     0.13     0.31     5.54     0  02:40        0.31
  YS02001580           JUNCTION     0.08     1.05     9.59     0  02:18        0.77
  YS02001583           JUNCTION     0.11     1.14     9.64     0  02:18        0.83
  YS02001586           JUNCTION     0.20     1.13     9.30     0  02:18        1.13
  YS02001590           JUNCTION     0.30     1.40     9.26     0  02:21        1.40
  YS02001593           JUNCTION     0.23     1.31     9.17     0  02:18        1.29
  YS02001596           JUNCTION     0.32     1.67     9.09     0  02:18        1.65
  YS02001600           JUNCTION     0.42     1.87     9.00     0  02:29        1.87
  YS02001601           JUNCTION     0.61     2.06     8.90     0  02:17        2.06
  YS02001602           JUNCTION     0.52     1.87     8.77     0  02:17        1.87
  YS02001605           JUNCTION     0.48     1.78     8.68     0  02:21        1.78
  YS02001607           JUNCTION     0.46     1.67     8.52     0  02:24        1.67
  YS02001610           JUNCTION     0.50     1.68     8.48     0  02:20        1.68
  YS02001613           JUNCTION     0.46     1.67     8.51     0  02:21        1.67
  YS02001616           JUNCTION     0.39     1.61     8.52     0  02:21        1.61
  YS02001619           JUNCTION     0.37     1.61     8.54     0  02:21        1.61
  YS02001622           JUNCTION     0.36     1.59     8.49     0  02:21        1.59
  YS02001625           JUNCTION     0.62     1.78     8.38     0  02:20        1.78
  YS02001629           JUNCTION     0.50     1.85     8.40     0  02:20        1.85
  YS02001633           JUNCTION     0.57     2.08     8.53     0  02:21        2.08
  YS02001641           JUNCTION     0.55     1.95     8.38     0  02:22        1.94
  YS02001644           JUNCTION     0.54     1.92     8.35     0  02:22        1.92
  YS02001647           JUNCTION     0.32     1.77     8.38     0  02:22        1.74
  YS02001649           JUNCTION     0.36     1.97     8.36     0  02:22        1.90
  YS02001652           JUNCTION     0.24     1.92     8.52     0  02:22        1.76
  YS02001655           JUNCTION     0.18     1.88     8.73     0  02:21        1.54
  YS02001658           JUNCTION     0.13     1.46     8.61     0  02:22        1.25
  YS02001661           JUNCTION     0.15     1.02     8.43     0  02:24        1.02
  YS02001664           JUNCTION     0.06     0.46     8.38     0  02:24        0.37
  YS02001745           JUNCTION     0.07     0.71     8.22     0  02:24        0.68
  YS02001748           JUNCTION     0.12     1.45     8.52     0  02:23        1.11
  YS02001751           JUNCTION     0.15     1.50     8.38     0  02:23        1.32
  YS02001754           JUNCTION     0.20     1.65     8.26     0  02:23        1.58
  YS02001757           JUNCTION     0.37     2.21     8.47     0  02:21        2.21
  YS02001759           JUNCTION     0.31     2.21     8.57     0  02:21        2.21
  YS02001762           JUNCTION     0.30     2.15     8.55     0  02:21        2.15
  YS02001765           JUNCTION     0.28     2.10     8.55     0  02:21        2.10
  YS02001767           JUNCTION     0.28     2.03     8.52     0  02:21        2.03
  YS02001770           JUNCTION     0.29     1.95     8.44     0  02:21        1.95
  YS02001774           JUNCTION     0.36     2.05     8.47     0  02:21        2.05
  YS02001779           JUNCTION     0.19     1.68     8.37     0  02:20        1.68
  YS02001783           JUNCTION     0.26     1.25     7.39     0  02:22        1.23
  YS02001784           JUNCTION     0.28     1.14     7.21     0  02:22        1.13
  YS02001786           JUNCTION     0.24     0.90     6.93     0  02:22        0.87
  YS02001788           JUNCTION     0.17     0.62     6.60     0  02:24        0.62
  YS02001790           JUNCTION     0.21     0.72     6.37     0  02:24        0.72
  YS02001791           JUNCTION     0.13     0.44     5.91     0  02:24        0.42
  YS02001793           JUNCTION     0.07     0.30     5.13     0  02:26        0.29
  YS02001882           JUNCTION     0.32     1.68     8.40     0  02:22        1.68
  YS02001884           JUNCTION     0.41     1.78     8.39     0  02:24        1.78
  YS02001887           JUNCTION     0.48     2.00     8.54     0  02:21        2.00
  YS02001890           JUNCTION     0.51     1.81     8.32     0  02:21        1.81
  YS02001895           JUNCTION     0.29     1.57     8.31     0  02:22        1.57
  YS02001898           JUNCTION     0.30     1.61     8.34     0  02:24        1.61
  YS02001901           JUNCTION     0.41     1.68     8.29     0  02:23        1.67
  YS02001904           JUNCTION     0.39     1.64     8.27     0  02:23        1.64
  YS02001907           JUNCTION     0.70     1.96     8.25     0  02:21        1.96
  YS02001910           JUNCTION     0.50     1.98     8.49     0  02:23        1.85
  YS02001915           JUNCTION     0.32     1.93     8.65     0  02:23        1.75
  YS02001918           JUNCTION     0.15     1.81     8.88     0  02:23        1.32
  YS02001920           JUNCTION     0.24     2.13     9.14     0  02:23        1.38
  YS02001923           JUNCTION     0.11     2.03     9.29     0  02:23        1.19
  YS02001926           JUNCTION     0.16     1.90     9.35     0  02:23        1.00
  YS02001929           JUNCTION     0.08     1.78     9.47     0  02:23        0.72
  YS02006553           JUNCTION     0.71     2.19     8.47     0  02:21        2.19
  YS02006556           JUNCTION     0.68     2.39     8.70     0  02:21        2.39
  YS02006558           JUNCTION     0.72     2.50     8.76     0  02:21        2.50
  YS02006561           JUNCTION     0.16     0.93     7.59     0  02:22        0.88
  YS02163301           JUNCTION     0.52     1.98     8.50     0  02:21        1.93
  YS02163601           JUNCTION     0.61     2.08     8.48     0  02:21        2.03
  YS02164001           JUNCTION     0.54     2.00     8.46     0  02:21        1.94
  CC-1                 OUTFALL      0.00     0.00     0.00     0  00:00        0.00
  CC-2                 OUTFALL      0.00     0.00     0.00     0  00:00        0.00
  JK-1                 OUTFALL      0.00     0.00     0.00     0  00:00        0.00
  JK-2                 OUTFALL      0.00     0.00     0.00     0  00:00        0.00
  WSC                  OUTFALL      0.23     0.35     1.02     0  02:40        0.35
  CC-storage           STORAGE      0.82     1.59     7.09     0  02:40        1.59
  JK-storage           STORAGE      3.22     4.23     5.03     0  02:25        4.17
  XR-storage           STORAGE      7.83     9.26     7.26     0  08:00        9.26
  
  
  *******************
  Node Inflow Summary
  *******************
  
  -------------------------------------------------------------------------------------------------
                                  Maximum  Maximum                  Lateral       Total        Flow
                                  Lateral    Total  Time of Max      Inflow      Inflow     Balance
                                   Inflow   Inflow   Occurrence      Volume      Volume       Error
  Node                 Type           LPS      LPS  days hr:min    10^6 ltr    10^6 ltr     Percent
  -------------------------------------------------------------------------------------------------
  WS02001211           JUNCTION      7.35   200.34     0  02:53       0.212        5.44       0.611
  WS02001212           JUNCTION      0.00   202.56     0  03:45           0        5.41       0.290
  WS02001213           JUNCTION      0.00   204.72     0  03:45           0        5.39       0.331
  WS02003059           JUNCTION      0.00   209.66     0  03:46           0        5.38       0.592
  WS02003060           JUNCTION     16.53   748.25     0  02:41       0.476        9.03       0.156
  WS02003066           JUNCTION      0.00   532.28     0  02:38           0         3.2       0.039
  WS02003067           JUNCTION      0.00   532.20     0  02:37           0         3.2       0.126
  WS02003069           JUNCTION      0.32   744.32     0  02:39     0.00922        9.01       0.165
  WS02003072           JUNCTION      0.00   743.94     0  02:39           0           9       0.225
  WS02003073           JUNCTION      1.82   745.44     0  02:40      0.0524        9.03       0.232
  WS02004138           JUNCTION      0.00   380.00     0  00:00           0        5.25       0.053
  WS02004139           JUNCTION      0.32   191.16     0  00:29     0.00924        5.26       0.509
  WS02004401           JUNCTION      0.00   539.66     0  02:43           0         3.3       0.300
  WS02004402           JUNCTION      0.00   536.98     0  02:33           0        3.29       0.306
  WS02004403           JUNCTION      0.00   536.85     0  02:38           0        3.28       0.299
  WS02004404           JUNCTION      0.16   535.55     0  02:36     0.00467        3.28       0.260
  WS02004405           JUNCTION      0.04   535.36     0  02:36      0.0011        3.27       0.367
  WS02004406           JUNCTION      0.00   535.52     0  02:36           0        3.26       0.625
  WS02004407           JUNCTION      0.00   534.80     0  02:36           0        3.24       0.029
  WS02004409           JUNCTION      0.00   534.48     0  02:36           0        3.24       0.071
  WS02004410           JUNCTION      0.00   534.11     0  02:36           0        3.23       0.122
  WS02004411           JUNCTION      0.00   532.84     0  02:37           0        3.23       0.160
  WS02004412           JUNCTION      0.00   532.63     0  02:36           0        3.22       0.219
  WS02004413           JUNCTION      0.00   532.55     0  02:37           0        3.22       0.393
  WS02006109           JUNCTION      1.23   565.50     0  02:51      0.0354        3.35       0.241
  WS02006110           JUNCTION      0.00   565.78     0  02:51           0        3.34       0.198
  WS02006111           JUNCTION      0.00   564.79     0  03:01           0        3.33       0.021
  WS02006112           JUNCTION      0.00   545.02     0  03:02           0        3.33       0.520
  WS02006113           JUNCTION      0.00   574.65     0  02:42           0        3.33       0.049
  WS02006115           JUNCTION      0.00   556.73     0  03:00           0        3.31       0.186
  WS02006116           JUNCTION      0.00   541.29     0  02:53           0        3.31       0.147
  WS02006228           JUNCTION      0.00   564.02     0  02:51           0        3.31       0.096
  WS02006229           JUNCTION      0.00   563.17     0  02:51           0        3.32       0.156
  WS02006230           JUNCTION     10.28   592.52     0  02:51       0.296        3.32       0.121
  WS02006231           JUNCTION      0.00   579.26     0  02:21           0        3.02      -0.133
  WS02006232           JUNCTION      0.00   578.41     0  02:21           0        3.03       0.353
  WS02006234           JUNCTION      0.00   573.57     0  02:21           0        3.02      -0.322
  WS02006235           JUNCTION      0.00   565.33     0  02:21           0        3.11       0.262
  WS02006238           JUNCTION      0.00   427.88     0  02:50           0        2.26      -0.093
  WS02006239           JUNCTION      0.00   426.01     0  02:50           0        2.22      -0.138
  WS02006240           JUNCTION      0.00   423.99     0  03:25           0        2.18      -0.060
  WS02006242           JUNCTION      0.00   423.74     0  03:25           0        2.15      -0.154
  WS02006243           JUNCTION      0.00   424.60     0  03:25           0        2.14      -0.029
  WS02006245           JUNCTION      0.00   425.08     0  03:25           0        2.14       0.450
  WS02006247           JUNCTION      0.00   426.67     0  03:25           0        2.14      -0.011
  WS02006248           JUNCTION      0.00   426.14     0  03:25           0        2.14      -0.074
  WS02006249           JUNCTION      0.00   458.97     0  00:00           0        2.32       0.522
  WS02006251           JUNCTION      0.08   406.00     0  02:22     0.00222        2.32       0.051
  WS02006252           JUNCTION      0.00   400.00     0  00:00           0        2.31      -0.441
  WS02006256           JUNCTION      0.00   373.63     0  02:00           0        1.26      -1.103
  WSF200               JUNCTION      0.00   532.33     0  02:38           0         3.2       0.015
  YS02001580           JUNCTION      0.00    78.40     0  02:18           0     0.00384       0.842
  YS02001583           JUNCTION      0.00   145.77     0  02:17           0      0.0151      -4.565
  YS02001586           JUNCTION    512.66   512.66     0  02:26        1.09         1.1       0.104
  YS02001590           JUNCTION      0.00   318.16     0  02:29           0       0.989      -0.031
  YS02001593           JUNCTION      0.00   317.94     0  02:24           0        0.99       0.003
  YS02001596           JUNCTION      0.00   317.97     0  02:24           0        0.99      -0.007
  YS02001600           JUNCTION      0.00   317.97     0  02:29           0        0.99       0.025
  YS02001601           JUNCTION    874.02  1191.89     0  02:25        1.47        2.46       0.033
  YS02001602           JUNCTION      0.00   500.62     0  02:17           0        1.83       0.026
  YS02001605           JUNCTION      0.00   500.15     0  02:17           0        1.77       0.036
  YS02001607           JUNCTION      0.00   499.55     0  02:17           0        1.77       0.105
  YS02001610           JUNCTION      0.00   498.46     0  02:17           0        1.77       0.131
  YS02001613           JUNCTION      0.00   497.56     0  02:16           0        1.56       0.098
  YS02001616           JUNCTION      0.00   497.49     0  02:16           0        1.56       0.022
  YS02001619           JUNCTION    887.93   914.06     0  02:19        1.68        3.23      -0.002
  YS02001622           JUNCTION      0.00   913.13     0  02:19           0        3.23       0.001
  YS02001625           JUNCTION      0.00  1003.26     0  02:26           0        3.26       0.283
  YS02001629           JUNCTION      0.00   912.81     0  02:20           0         2.8       0.027
  YS02001633           JUNCTION    676.46  1308.93     0  02:20        1.11        3.88       0.088
  YS02001641           JUNCTION      0.00  1305.10     0  02:20           0        3.85       0.073
  YS02001644           JUNCTION    580.16  1659.91     0  02:20        0.91        4.75       0.069
  YS02001647           JUNCTION      0.00  1660.53     0  02:20           0        4.69       0.009
  YS02001649           JUNCTION      0.00  1837.46     0  02:19           0        5.56       0.007
  YS02001652           JUNCTION      0.00   611.52     0  02:25           0        0.87      -0.101
  YS02001655           JUNCTION      0.15   611.89     0  02:25     0.00443       0.869      -0.052
  YS02001658           JUNCTION      0.00   610.26     0  02:25           0       0.864      -0.060
  YS02001661           JUNCTION      0.00   792.08     0  02:24           0       0.864       0.020
  YS02001664           JUNCTION    592.82   592.82     0  02:25       0.864       0.864      -0.009
  YS02001745           JUNCTION    354.91   354.91     0  02:25       0.499       0.499       0.225
  YS02001748           JUNCTION      0.04   521.70     0  02:23      0.0013       0.499      -0.385
  YS02001751           JUNCTION      0.01   368.12     0  02:25    0.000317       0.508       0.167
  YS02001754           JUNCTION      0.26   367.93     0  02:25     0.00749       0.525      -0.223
  YS02001757           JUNCTION      0.00  3027.78     0  02:24           0         7.9       0.013
  YS02001759           JUNCTION    518.63  1199.00     0  02:25       0.728        1.82      -0.015
  YS02001762           JUNCTION      0.00   695.85     0  02:25           0        1.09      -0.001
  YS02001765           JUNCTION      0.00   694.68     0  02:25           0        1.09       0.002
  YS02001767           JUNCTION      0.54   694.38     0  02:25      0.0154        1.09       0.004
  YS02001770           JUNCTION    710.37   710.37     0  02:25        1.08        1.12      -0.008
  YS02001774           JUNCTION      0.00   318.99     0  02:20           0      0.0637       2.193
  YS02001779           JUNCTION      0.01   323.57     0  02:20    0.000144      0.0207      -3.378
  YS02001783           JUNCTION      0.00  1156.54     0  02:24           0        2.96       0.007
  YS02001784           JUNCTION      1.06  1157.00     0  02:24      0.0305           3       0.017
  YS02001786           JUNCTION      0.06  1156.72     0  02:24     0.00162           3       0.022
  YS02001788           JUNCTION      0.07  1159.25     0  02:24     0.00204           3       0.009
  YS02001790           JUNCTION      0.15  1167.21     0  02:25     0.00446           3       0.009
  YS02001791           JUNCTION      0.00  1288.04     0  02:24           0           3      -0.007
  YS02001793           JUNCTION      0.00  1240.99     0  02:25           0           3       0.006
  YS02001882           JUNCTION      0.00    42.38     0  02:20           0      0.0125       5.010
  YS02001884           JUNCTION      0.00    75.49     0  02:20           0      0.0484       5.604
  YS02001887           JUNCTION    547.71   548.27     0  02:25       0.759       0.793       0.556
  YS02001890           JUNCTION      0.00   548.43     0  02:25           0       0.752       0.687
  YS02001895           JUNCTION      0.00   508.91     0  02:25           0       0.741       0.193
  YS02001898           JUNCTION      0.00   508.80     0  02:25           0       0.739       0.043
  YS02001901           JUNCTION      0.00   509.08     0  02:25           0       0.742       0.442
  YS02001904           JUNCTION      0.00   509.24     0  02:25           0       0.746       0.369
  YS02001907           JUNCTION      0.00  1500.08     0  02:24           0        2.27       0.793
  YS02001910           JUNCTION      0.00  1011.94     0  02:24           0        1.53       0.473
  YS02001915           JUNCTION    585.37  1011.28     0  02:24       0.929        1.57       0.094
  YS02001918           JUNCTION      0.00   461.54     0  02:24           0       0.664      -0.045
  YS02001920           JUNCTION      2.87   461.38     0  02:24      0.0827       0.649       0.145
  YS02001923           JUNCTION      0.04   433.87     0  02:23     0.00109       0.552      -0.116
  YS02001926           JUNCTION      0.05   438.41     0  02:22      0.0015       0.533       0.089
  YS02001929           JUNCTION    301.46   336.24     0  02:23       0.523       0.523      -0.162
  YS02006553           JUNCTION      0.00   797.47     0  02:32           0        1.96       0.600
  YS02006556           JUNCTION      0.00   794.18     0  02:32           0        1.97       0.395
  YS02006558           JUNCTION    709.06  1156.61     0  02:22        1.05        2.99       0.112
  YS02006561           JUNCTION      0.00  1155.12     0  02:22           0        2.96      -0.006
  YS02163301           JUNCTION      0.00   914.02     0  02:20           0         2.8       0.058
  YS02163601           JUNCTION      0.11  1308.39     0  02:20     0.00317        3.85       0.128
  YS02164001           JUNCTION      0.00  1307.52     0  02:20           0        3.85       0.063
  CC-1                 OUTFALL       0.00   683.00     0  00:00           0        3.31       0.000
  CC-2                 OUTFALL       0.00   683.00     0  00:00           0        3.05       0.000
  JK-1                 OUTFALL       0.00  1000.00     0  00:00           0        1.67       0.000
  JK-2                 OUTFALL       0.00  1000.00     0  00:00           0      0.0484       0.000
  WSC                  OUTFALL       0.00   745.29     0  02:40           0        9.01       0.000
  CC-storage           STORAGE       0.00  3026.84     0  02:24           0        10.1      -0.232
  JK-storage           STORAGE       0.00  1205.78     0  02:26           0        3.15       0.114
  XR-storage           STORAGE     200.00   200.00     0  00:00        5.76        6.36       0.001
  
  
  **********************
  Node Surcharge Summary
  **********************
  
  Surcharging occurs when water rises above the top of the highest conduit.
  ---------------------------------------------------------------------
                                               Max. Height   Min. Depth
                                   Hours       Above Crown    Below Rim
  Node                 Type      Surcharged         Meters       Meters
  ---------------------------------------------------------------------
  WS02006109           JUNCTION        1.35          0.414        1.406
  WS02006110           JUNCTION        0.50          0.305        1.545
  WS02006112           JUNCTION        0.64          0.111        1.569
  WS02006228           JUNCTION        1.35          0.508        1.692
  WS02006229           JUNCTION        1.37          0.610        1.840
  WS02006230           JUNCTION        0.51          0.617        0.953
  WS02006231           JUNCTION        0.69          0.661        0.869
  WS02006232           JUNCTION        1.41          0.829        0.651
  WS02006234           JUNCTION        1.13          0.725        0.515
  WS02006235           JUNCTION        1.31          0.794        0.496
  WS02006238           JUNCTION        1.38          0.818        0.612
  WS02006239           JUNCTION        1.31          0.804        0.486
  WS02006240           JUNCTION        1.33          0.821        0.569
  WS02006242           JUNCTION        1.34          0.820        0.000
  WS02006243           JUNCTION        1.32          0.717        0.053
  WS02006245           JUNCTION        1.32          0.624        0.226
  WS02006247           JUNCTION        1.32          0.563        0.197
  WS02006248           JUNCTION        1.32          0.380        0.000
  WS02006249           JUNCTION        1.31          0.390        0.000
  WS02006251           JUNCTION        0.80          0.344        0.836
  WS02006252           JUNCTION        1.48          1.100        0.000
  WS02006256           JUNCTION        4.03          2.050        0.000
  YS02001580           JUNCTION        0.36          0.450        0.000
  YS02001583           JUNCTION        0.37          0.500        0.000
  YS02001586           JUNCTION        0.47          0.510        0.000
  YS02001590           JUNCTION        0.53          0.750        0.000
  YS02001593           JUNCTION        0.54          0.686        0.154
  YS02001596           JUNCTION        0.64          0.939        0.131
  YS02001600           JUNCTION        0.78          1.188        0.002
  YS02001601           JUNCTION        1.12          1.440        0.000
  YS02001602           JUNCTION        1.01          1.270        0.000
  YS02001605           JUNCTION        0.95          1.180        0.000
  YS02001607           JUNCTION        0.51          0.670        0.010
  YS02001610           JUNCTION        0.53          0.680        0.000
  YS02001613           JUNCTION        0.50          0.672        0.028
  YS02001616           JUNCTION        0.47          0.610        0.000
  YS02001619           JUNCTION        0.46          0.610        0.000
  YS02001622           JUNCTION        0.45          0.589        0.031
  YS02001625           JUNCTION        0.61          0.780        0.000
  YS02001629           JUNCTION        0.42          0.470        0.000
  YS02001633           JUNCTION        0.63          1.060        0.000
  YS02001641           JUNCTION        0.56          0.947        0.153
  YS02001644           JUNCTION        0.54          0.920        0.000
  YS02001647           JUNCTION        0.36          0.771        0.129
  YS02001649           JUNCTION        0.46          0.974        0.076
  YS02001652           JUNCTION        0.31          0.890        0.240
  YS02001655           JUNCTION        0.22          0.877        0.323
  YS02001658           JUNCTION        0.10          0.465        0.835
  YS02001748           JUNCTION        0.05          0.367        0.823
  YS02001751           JUNCTION        0.14          0.499        0.701
  YS02001754           JUNCTION        0.25          0.602        0.548
  YS02001757           JUNCTION        0.51          1.210        0.000
  YS02001759           JUNCTION        0.43          1.210        0.000
  YS02001762           JUNCTION        0.41          1.150        0.000
  YS02001765           JUNCTION        0.37          1.100        0.000
  YS02001767           JUNCTION        0.34          1.030        0.000
  YS02001770           JUNCTION        0.33          0.920        0.000
  YS02001774           JUNCTION        0.39          1.050        0.000
  YS02001779           JUNCTION        0.24          0.680        0.000
  YS02001783           JUNCTION        0.32          0.452        1.148
  YS02001784           JUNCTION        0.29          0.340        1.150
  YS02001786           JUNCTION        0.20          0.097        1.333
  YS02001882           JUNCTION        0.27          0.683        0.147
  YS02001884           JUNCTION        0.28          0.717        0.153
  YS02001887           JUNCTION        0.31          0.950        0.000
  YS02001890           JUNCTION        0.32          0.760        0.000
  YS02001895           JUNCTION        0.26          0.566        0.184
  YS02001898           JUNCTION        0.25          0.578        0.162
  YS02001901           JUNCTION        0.30          0.684        0.186
  YS02001904           JUNCTION        0.29          0.639        0.211
  YS02001907           JUNCTION        0.52          0.950        0.000
  YS02001910           JUNCTION        0.34          0.982        0.118
  YS02001915           JUNCTION        0.27          0.927        0.073
  YS02001918           JUNCTION        0.19          0.810        0.000
  YS02001920           JUNCTION        0.21          1.130        0.010
  YS02001923           JUNCTION        0.01          0.820        0.000
  YS02001926           JUNCTION        0.01          0.900        0.000
  YS02001929           JUNCTION        0.01          0.780        0.000
  YS02006553           JUNCTION        0.53          1.190        0.000
  YS02006556           JUNCTION        0.43          1.350        0.000
  YS02006558           JUNCTION        0.41          1.396        0.004
  YS02006561           JUNCTION        0.16          0.128        1.022
  YS02163301           JUNCTION        0.61          0.984        0.046
  YS02163601           JUNCTION        0.66          1.080        0.000
  YS02164001           JUNCTION        0.57          0.998        0.102
  
  
  *********************
  Node Flooding Summary
  *********************
  
  Flooding refers to all water that overflows a node, whether it ponds or not.
  --------------------------------------------------------------------------
                                                             Total   Maximum
                                 Maximum   Time of Max       Flood    Ponded
                        Hours       Rate    Occurrence      Volume     Depth
  Node                 Flooded       LPS   days hr:min    10^6 ltr    Meters
  --------------------------------------------------------------------------
  WS02006242              0.01      4.57      0  03:00       0.000     0.000
  WS02006248              0.01     23.43      0  02:35       0.001     0.000
  WS02006249              0.75     92.53      0  02:14       0.170     0.000
  WS02006252              0.01    245.63      0  00:00       0.000     0.000
  WS02006256              1.17    370.65      0  02:00       0.380     0.000
  YS02001580              0.01      6.11      0  02:18       0.000     0.000
  YS02001583              0.01    106.80      0  02:18       0.000     0.000
  YS02001586              0.26    195.25      0  02:26       0.096     0.000
  YS02001590              0.01      0.45      0  02:21       0.000     0.000
  YS02001601              0.41    793.80      0  02:25       0.629     0.000
  YS02001602              0.32     62.28      0  02:35       0.063     0.000
  YS02001605              0.01      0.09      0  02:21       0.000     0.000
  YS02001610              0.27    373.42      0  02:26       0.212     0.000
  YS02001616              0.01      3.59      0  02:21       0.000     0.000
  YS02001619              0.01      6.11      0  02:21       0.000     0.000
  YS02001625              0.25   1002.81      0  02:26       0.472     0.000
  YS02001629              0.05     69.92      0  02:24       0.008     0.000
  YS02001633              0.01      6.77      0  02:21       0.000     0.000
  YS02001644              0.08    320.10      0  02:24       0.051     0.000
  YS02001757              0.01     20.08      0  02:21       0.000     0.000
  YS02001759              0.01     24.45      0  02:21       0.000     0.000
  YS02001762              0.01     30.16      0  02:21       0.000     0.000
  YS02001765              0.01     27.44      0  02:21       0.000     0.000
  YS02001767              0.01     16.28      0  02:21       0.000     0.000
  YS02001770              0.01     33.95      0  02:21       0.000     0.000
  YS02001774              0.01     11.37      0  02:21       0.000     0.000
  YS02001779              0.04    223.59      0  02:20       0.003     0.000
  YS02001887              0.01      5.93      0  02:21       0.000     0.000
  YS02001890              0.05     55.72      0  02:24       0.006     0.000
  YS02001907              0.15   1025.79      0  02:24       0.304     0.000
  YS02001918              0.01     90.73      0  02:23       0.001     0.000
  YS02001923              0.01     59.71      0  02:23       0.000     0.000
  YS02001926              0.01     30.50      0  02:23       0.000     0.000
  YS02001929              0.01    275.98      0  02:23       0.001     0.000
  YS02006553              0.01      4.16      0  02:21       0.000     0.000
  YS02006556              0.01      5.12      0  02:21       0.000     0.000
  YS02163601              0.01      7.38      0  02:21       0.000     0.000
  
  
  **********************
  Storage Volume Summary
  **********************
  
  ------------------------------------------------------------------------------------------------
                         Average    Avg   Evap  Exfil     Maximum    Max    Time of Max    Maximum
                          Volume   Pcnt   Pcnt   Pcnt      Volume   Pcnt     Occurrence    Outflow
  Storage Unit           1000 m³   Full   Loss   Loss     1000 m³   Full    days hr:min        LPS
  ------------------------------------------------------------------------------------------------
  CC-storage               2.290   35.7    0.0    0.0       4.433   69.1       0  02:40    1783.53
  JK-storage               0.162   55.5    0.0    0.0       0.213   73.0       0  02:25    2300.00
  XR-storage               0.940   65.3    0.0    0.0       1.111   77.2       0  08:00     380.00
  
  
  ***********************
  Outfall Loading Summary
  ***********************
  
  -----------------------------------------------------------
                         Flow       Avg       Max       Total
                         Freq      Flow      Flow      Volume
  Outfall Node           Pcnt       LPS       LPS    10^6 ltr
  -----------------------------------------------------------
  CC-1                  28.30    683.00    683.00       3.312
  CC-2                  25.70    683.00    683.00       3.049
  JK-1                  12.13   1000.00   1000.00       1.669
  JK-2                   0.24   1000.00   1000.00       0.048
  WSC                   99.93    372.67    745.29       9.008
  -----------------------------------------------------------
  System                33.26   3738.67   3366.23      17.088
  
  
  ********************
  Link Flow Summary
  ********************
  
  -----------------------------------------------------------------------------
                                 Maximum  Time of Max   Maximum    Max/    Max/
                                  |Flow|   Occurrence   |Veloc|    Full    Full
  Link                 Type          LPS  days hr:min     m/sec    Flow   Depth
  -----------------------------------------------------------------------------
  1                    CONDUIT    745.29     0  02:40      3.07    0.26    0.35
  WS02001211WS02001212 CONDUIT    202.56     0  03:45      0.54    0.15    0.51
  WS02001212WS02001213 CONDUIT    204.72     0  03:45      1.04    0.32    0.36
  WS02001213WS02003059 CONDUIT    209.66     0  03:46      0.47    0.35    0.67
  WS02003059WS02003060 CONDUIT    216.77     0  03:43      0.67    0.14    0.58
  WS02003060WS02003069 CONDUIT    744.00     0  02:39      1.77    0.29    0.40
  WS02003066WSF200     CONDUIT    532.33     0  02:38      2.73    0.09    0.23
  WS02003067WS02003066 CONDUIT    532.28     0  02:38      1.20    0.17    0.41
  WS02003069WS02003072 CONDUIT    743.94     0  02:39      1.51    0.36    0.45
  WS02003072WS02003073 CONDUIT    743.62     0  02:40      1.59    1.61    0.43
  WS02004138WS02004139 CONDUIT    190.84     0  00:29      2.17    0.04    0.33
  WS02004139WS02001211 CONDUIT    192.99     0  02:53      0.54    0.24    0.47
  WS02004401WS02004402 CONDUIT    536.98     0  02:33      0.97    0.64    0.86
  WS02004402WS02004403 CONDUIT    536.85     0  02:38      0.97    0.77    0.88
  WS02004403WS02004404 CONDUIT    535.38     0  02:36      0.92    0.39    0.93
  WS02004404WS02004405 CONDUIT    535.33     0  02:36      1.08    5.24    0.96
  WS02004405WS02004406 CONDUIT    535.52     0  02:36      0.99    1.06    0.95
  WS02004406WS02004407 CONDUIT    534.80     0  02:36      1.04    0.24    0.62
  WS02004407WS02004409 CONDUIT    534.48     0  02:36      1.48    0.19    0.48
  WS02004409WS02004410 CONDUIT    534.11     0  02:36      0.97    0.69    0.67
  WS02004410WS02004411 CONDUIT    532.84     0  02:37      0.94    0.73    0.68
  WS02004411WS02004412 CONDUIT    532.63     0  02:36      0.92    0.76    0.69
  WS02004412WS02004413 CONDUIT    532.55     0  02:37      0.82    0.36    0.77
  WS02004413WS02003067 CONDUIT    532.20     0  02:37      1.10    0.23    0.59
  WS02006109WS02006110 CONDUIT    565.78     0  02:51      1.13    1.09    1.00
  WS02006110WS02006113 CONDUIT    574.65     0  02:42      1.38    0.52    0.79
  WS02006111WS02006112 CONDUIT    545.02     0  03:02      1.82    0.26    0.67
  WS02006112WS02006115 CONDUIT    556.73     0  03:00      0.78    0.33    0.87
  WS02006113WS02006111 CONDUIT    564.79     0  03:01      2.48    0.68    0.46
  WS02006115WS02006116 CONDUIT    541.29     0  02:53      0.97    0.69    0.76
  WS02006116WS02004401 CONDUIT    539.66     0  02:43      0.98    0.74    0.84
  WS02006228WS02006109 CONDUIT    564.27     0  02:51      1.12    2.47    1.00
  WS02006229WS02006228 CONDUIT    564.02     0  02:51      1.15    1.87    1.00
  WS02006230WS02006229 CONDUIT    563.17     0  02:51      1.46   12.53    1.00
  WS02006231WS02006230 CONDUIT    582.24     0  02:51      1.60    8.83    1.00
  WS02006232WS02006231 CONDUIT    579.26     0  02:21      1.51    1.21    1.00
  WS02006234WS02006232 CONDUIT    578.41     0  02:21      1.50    1.17    1.00
  WS02006235WS02006234 CONDUIT    573.57     0  02:21      1.49    6.05    1.00
  WS02006238WS02006235 CONDUIT    427.30     0  02:50      1.57    0.95    1.00
  WS02006239WS02006238 CONDUIT    427.88     0  02:50      1.11    1.37    1.00
  WS02006240WS02006239 CONDUIT    426.01     0  02:50      1.24    1.34    1.00
  WS02006242WS02006240 CONDUIT    423.99     0  03:25      1.12    1.68    1.00
  WS02006243WS02006242 CONDUIT    423.74     0  03:25      1.39    0.91    1.00
  WS02006245WS02006243 CONDUIT    424.60     0  03:25      1.45    1.26    1.00
  WS02006247WS02006245 CONDUIT    425.08     0  03:25      1.44    3.37    1.00
  WS02006248WS02006247 CONDUIT    426.67     0  03:25      1.45    0.93    1.00
  WS02006249WS02006248 CONDUIT    426.14     0  03:25      1.37    2.33    1.00
  WS02006251WS02006249 CONDUIT    458.97     0  00:00      1.99    1.32    1.00
  WS02006252WS02006251 CONDUIT    405.92     0  02:22     25.93    1.49    1.00
  WS02006256WS02006235 CONDUIT    289.22     0  01:58      4.23    3.06    1.00
  WSF200WS02003060     CONDUIT    533.47     0  02:36      1.75    0.12    0.31
  YS02001580YS02001583 CONDUIT     78.40     0  02:18      0.58    0.30    1.00
  YS02001583YS02001586 CONDUIT    145.77     0  02:17      0.60    0.22    1.00
  YS02001586YS02001590 CONDUIT    318.16     0  02:29      1.26    0.56    1.00
  YS02001590YS02001593 CONDUIT    317.94     0  02:24      1.12    2.00    1.00
  YS02001593YS02001596 CONDUIT    317.97     0  02:24      1.74    0.50    1.00
  YS02001596YS02001600 CONDUIT    317.97     0  02:29      1.24    0.62    1.00
  YS02001600YS02001601 CONDUIT    318.15     0  02:29      1.13    0.55    1.00
  YS02001601YS02001602 CONDUIT    500.62     0  02:17      1.77    1.81    1.00
  YS02001602YS02001605 CONDUIT    500.15     0  02:17      1.77   10.58    1.00
  YS02001605YS02001607 CONDUIT    499.55     0  02:17      1.77    2.74    1.00
  YS02001607YS02001610 CONDUIT    498.46     0  02:17      0.63    0.47    1.00
  YS02001610YS02001613 CONDUIT    497.56     0  02:16      0.63    0.57    1.00
  YS02001613YS02001616 CONDUIT    497.49     0  02:16      0.64    0.43    1.00
  YS02001616YS02001619 CONDUIT    493.35     0  02:17      0.66    0.86    1.00
  YS02001619YS02001622 CONDUIT    913.13     0  02:19      1.17    1.35    1.00
  YS02001622YS02001625 CONDUIT    913.49     0  02:19      1.16    0.49    1.00
  YS02001625YS02001629 CONDUIT    912.81     0  02:20      1.16    0.43    1.00
  YS02001629YS02163301 CONDUIT    914.02     0  02:20      1.16    1.13    1.00
  YS02001633YS02163601 CONDUIT   1308.28     0  02:20      1.67    1.37    1.00
  YS02001641YS02001644 CONDUIT   1304.80     0  02:20      1.66    4.22    1.00
  YS02001644YS02001647 CONDUIT   1660.53     0  02:20      2.13    0.98    1.00
  YS02001647YS02001649 CONDUIT   1668.27     0  02:20      2.26    0.88    1.00
  YS02001649YS02001757 CONDUIT   1812.25     0  02:19      2.33    1.10    1.00
  YS02001652YS02001649 CONDUIT    613.03     0  02:25      0.78    0.30    1.00
  YS02001655YS02001652 CONDUIT    611.52     0  02:25      1.25    0.30    1.00
  YS02001658YS02001655 CONDUIT    611.74     0  02:25      1.85    0.26    1.00
  YS02001661YS02001658 CONDUIT    610.26     0  02:25      2.20    0.24    0.98
  YS02001664YS02001661 CONDUIT    792.08     0  02:24      2.15    0.25    0.67
  YS02001745YS02001748 CONDUIT    521.66     0  02:23      2.01    0.20    0.85
  YS02001748YS02001751 CONDUIT    368.11     0  02:25      1.58    0.19    1.00
  YS02001751YS02001754 CONDUIT    367.67     0  02:25      1.39    0.18    1.00
  YS02001754YS02001757 CONDUIT    368.21     0  02:25      0.47    0.15    1.00
  YS02001757CaochengTiaoxuchi CONDUIT   3026.84     0  02:24      3.85    1.31    1.00
  YS02001759YS02001757 CONDUIT   1199.05     0  02:25      1.53    0.85    1.00
  YS02001762YS02001759 CONDUIT    695.38     0  02:25      0.89    0.80    1.00
  YS02001765YS02001762 CONDUIT    695.85     0  02:25      0.89    0.65    1.00
  YS02001767YS02001765 CONDUIT    694.68     0  02:25      0.88    0.87    1.00
  YS02001770YS02001767 CONDUIT    693.84     0  02:25      0.88    2.75    1.00
  YS02001774YS02001770 CONDUIT    318.99     0  02:20      0.41    0.20    1.00
  YS02001779YS02001774 CONDUIT    323.57     0  02:20      0.42    0.16    1.00
  YS02001783YS02001784 CONDUIT   1155.94     0  02:24      2.30    1.59    1.00
  YS02001784YS02001785 CONDUIT   1156.67     0  02:24      2.30    2.69    1.00
  YS02001786YS02001788 CONDUIT   1159.17     0  02:24      2.46    2.23    0.89
  YS02001788YS02001790 CONDUIT   1167.05     0  02:25      2.71    0.86    0.84
  YS02001790YS02001791 CONDUIT   1288.04     0  02:24      3.43    1.40    0.70
  YS02001791YS02001793 CONDUIT   1240.99     0  02:25      6.52    0.53    0.44
  YS02001793JiankangQianchi CONDUIT   1205.78     0  02:26      2.34    0.10    0.65
  YS02001882YS02001884 CONDUIT     42.38     0  02:20      0.11    0.05    1.00
  YS02001884YS02001887 CONDUIT     75.49     0  02:20      0.10    0.10    1.00
  YS02001887YS02001890 CONDUIT    548.43     0  02:25      0.70    0.94    1.00
  YS02001890YS02001895 CONDUIT    508.91     0  02:25      0.65    0.24    1.00
  YS02001895YS02001898 CONDUIT    508.80     0  02:25      0.65    0.88    1.00
  YS02001898YS02001901 CONDUIT    509.08     0  02:25      0.65    0.33    1.00
  YS02001901YS02001904 CONDUIT    509.24     0  02:25      0.65    0.79    1.00
  YS02001904YS02001907 CONDUIT    508.64     0  02:25      0.65    0.18    1.00
  YS02001907YS02006553 CONDUIT    797.47     0  02:32      0.89    0.94    1.00
  YS02001910YS02001907 CONDUIT   1012.76     0  02:24      1.29    0.57    1.00
  YS02001915YS02001910 CONDUIT   1011.94     0  02:24      1.29    0.50    1.00
  YS02001918YS02001915 CONDUIT    465.10     0  02:24      0.59    0.26    1.00
  YS02001920YS02001918 CONDUIT    461.54     0  02:24      0.65    0.45    1.00
  YS02001923YS02001920 CONDUIT    458.51     0  02:24      0.71    0.21    1.00
  YS02001926YS02001923 CONDUIT    433.83     0  02:23      0.97    0.62    1.00
  YS02001929YS02001926 CONDUIT    431.45     0  02:23      1.13    0.20    1.00
  YS02006553YS02006556 CONDUIT    794.18     0  02:32      1.01    0.68    1.00
  YS02006556YS02006558 CONDUIT    796.37     0  02:33      1.01    0.63    1.00
  YS02006558YS02006561 CONDUIT   1155.12     0  02:22      4.09    2.55    1.00
  YS02006561YS02001783 CONDUIT   1156.54     0  02:24      2.30    0.60    1.00
  YS02163301YS02001633 CONDUIT    912.71     0  02:20      1.16    0.86    1.00
  YS02163601YS02164001 CONDUIT   1307.52     0  02:20      1.66    1.16    1.00
  YS02164001YS02001641 CONDUIT   1305.10     0  02:20      1.66    1.78    1.00
  CC-R1                PUMP       683.00     0  00:00              1.00
  CC-R2                PUMP       683.00     0  00:00              1.00
  CC-S1                PUMP       200.00     0  00:00              1.00
  CC-S2                PUMP       200.00     0  00:00              1.00
  JK-R1                PUMP      1000.00     0  00:00              1.00
  JK-R2                PUMP      1000.00     0  00:00              1.00
  JK-S                 PUMP       300.00     0  00:00              1.00
  XR-1                 PUMP        95.00     0  00:00              1.00
  XR-2                 PUMP        95.00     0  00:00              1.00
  XR-3                 PUMP        95.00     0  00:00              1.00
  XR-4                 PUMP        95.00     0  00:00              1.00
  
  
  ***************************
  Flow Classification Summary
  ***************************
  
  -------------------------------------------------------------------------------------
                      Adjusted    ---------- Fraction of Time in Flow Class ---------- 
                       /Actual         Up    Down  Sub   Sup   Up    Down  Norm  Inlet 
  Conduit               Length    Dry  Dry   Dry   Crit  Crit  Crit  Crit  Ltd   Ctrl  
  -------------------------------------------------------------------------------------
  1                       1.00   0.00  0.00  0.00  0.00  1.00  0.00  0.00  0.19  0.00
  WS02001211WS02001212    1.00   0.00  0.02  0.00  0.98  0.00  0.00  0.00  0.00  0.00
  WS02001212WS02001213    1.00   0.02  0.00  0.00  0.19  0.00  0.78  0.00  0.00  0.00
  WS02001213WS02003059    1.00   0.00  0.01  0.00  0.99  0.00  0.00  0.00  0.00  0.00
  WS02003059WS02003060    1.00   0.00  0.00  0.00  1.00  0.00  0.00  0.00  0.03  0.00
  WS02003060WS02003069    1.00   0.00  0.00  0.00  0.98  0.02  0.00  0.00  0.67  0.00
  WS02003066WSF200        1.00   0.13  0.00  0.00  0.00  0.87  0.00  0.00  0.77  0.00
  WS02003067WS02003066    1.00   0.10  0.02  0.00  0.88  0.00  0.00  0.00  0.00  0.00
  WS02003069WS02003072    1.00   0.00  0.00  0.00  1.00  0.00  0.00  0.00  0.78  0.00
  WS02003072WS02003073    1.00   0.00  0.00  0.00  0.00  0.00  0.00  1.00  0.00  0.00
  WS02004138WS02004139    1.00   0.00  0.00  0.00  0.97  0.01  0.00  0.02  0.98  0.00
  WS02004139WS02001211    1.00   0.00  0.00  0.00  0.99  0.00  0.00  0.00  0.00  0.00
  WS02004401WS02004402    1.00   0.02  0.00  0.00  0.98  0.00  0.00  0.00  0.00  0.00
  WS02004402WS02004403    1.00   0.02  0.00  0.00  0.97  0.00  0.00  0.00  0.00  0.00
  WS02004403WS02004404    1.00   0.00  0.03  0.00  0.97  0.00  0.00  0.00  0.00  0.00
  WS02004404WS02004405    1.00   0.00  0.00  0.00  1.00  0.00  0.00  0.00  0.01  0.00
  WS02004405WS02004406    1.00   0.00  0.00  0.00  1.00  0.00  0.00  0.00  0.00  0.00
  WS02004406WS02004407    1.00   0.00  0.05  0.00  0.95  0.00  0.00  0.00  0.00  0.00
  WS02004407WS02004409    1.00   0.05  0.00  0.00  0.94  0.01  0.00  0.00  0.94  0.00
  WS02004409WS02004410    1.00   0.05  0.00  0.00  0.95  0.00  0.00  0.00  0.03  0.00
  WS02004410WS02004411    1.00   0.05  0.00  0.00  0.95  0.00  0.00  0.00  0.01  0.00
  WS02004411WS02004412    1.00   0.05  0.00  0.00  0.95  0.00  0.00  0.00  0.00  0.00
  WS02004412WS02004413    1.00   0.05  0.00  0.00  0.94  0.00  0.00  0.00  0.01  0.00
  WS02004413WS02003067    1.00   0.06  0.04  0.00  0.00  0.00  0.90  0.00  0.00  0.00
  WS02006109WS02006110    1.00   0.00  0.01  0.00  0.98  0.00  0.01  0.00  0.00  0.00
  WS02006110WS02006113    1.00   0.01  0.01  0.00  0.98  0.00  0.00  0.00  0.00  0.00
  WS02006111WS02006112    1.00   0.02  0.00  0.00  0.98  0.00  0.00  0.00  0.98  0.00
  WS02006112WS02006115    1.00   0.02  0.00  0.00  0.97  0.00  0.00  0.00  0.00  0.00
  WS02006113WS02006111    1.00   0.02  0.00  0.00  0.00  0.98  0.00  0.00  0.09  0.00
  WS02006115WS02006116    1.00   0.02  0.00  0.00  0.97  0.00  0.00  0.01  0.00  0.00
  WS02006116WS02004401    1.00   0.02  0.00  0.00  0.98  0.00  0.00  0.00  0.00  0.00
  WS02006228WS02006109    1.00   0.00  0.00  0.00  1.00  0.00  0.00  0.00  0.00  0.00
  WS02006229WS02006228    1.00   0.00  0.00  0.00  0.99  0.00  0.00  0.01  0.00  0.00
  WS02006230WS02006229    1.00   0.00  0.00  0.00  0.99  0.00  0.00  0.01  0.01  0.00
  WS02006231WS02006230    1.00   0.00  0.00  0.00  0.19  0.00  0.81  0.00  0.00  0.00
  WS02006232WS02006231    1.00   0.00  0.00  0.00  0.99  0.00  0.01  0.00  0.00  0.00
  WS02006234WS02006232    1.00   0.00  0.00  0.00  1.00  0.00  0.00  0.00  0.35  0.00
  WS02006235WS02006234    1.00   0.00  0.00  0.00  0.59  0.00  0.41  0.00  0.00  0.00
  WS02006238WS02006235    1.00   0.00  0.00  0.00  1.00  0.00  0.00  0.00  0.00  0.00
  WS02006239WS02006238    1.00   0.00  0.00  0.00  1.00  0.00  0.00  0.00  0.50  0.00
  WS02006240WS02006239    1.00   0.00  0.00  0.00  0.41  0.00  0.00  0.59  0.02  0.00
  WS02006242WS02006240    1.00   0.00  0.00  0.00  1.00  0.00  0.00  0.00  0.00  0.00
  WS02006243WS02006242    1.00   0.00  0.00  0.00  0.99  0.00  0.00  0.01  0.74  0.00
  WS02006245WS02006243    1.00   0.00  0.00  0.00  0.47  0.00  0.00  0.52  0.01  0.00
  WS02006247WS02006245    1.00   0.00  0.00  0.00  0.99  0.00  0.00  0.01  0.00  0.00
  WS02006248WS02006247    1.00   0.00  0.00  0.00  0.99  0.00  0.00  0.01  0.25  0.00
  WS02006249WS02006248    1.00   0.00  0.00  0.00  0.29  0.00  0.71  0.00  0.00  0.00
  WS02006251WS02006249    1.00   0.00  0.00  0.00  0.99  0.01  0.00  0.00  0.74  0.00
  WS02006252WS02006251    1.00   0.00  0.75  0.00  0.10  0.00  0.15  0.00  0.00  0.00
  WS02006256WS02006235    1.00   0.00  0.00  0.00  0.99  0.01  0.00  0.00  0.00  0.00
  WSF200WS02003060        1.00   0.00  0.13  0.00  0.70  0.17  0.00  0.00  0.68  0.00
  YS02001580YS02001583    1.00   0.28  0.56  0.00  0.16  0.00  0.00  0.00  0.65  0.00
  YS02001583YS02001586    1.00   0.48  0.31  0.00  0.21  0.00  0.00  0.00  0.65  0.00
  YS02001586YS02001590    1.00   0.13  0.00  0.00  0.40  0.04  0.00  0.44  0.36  0.00
  YS02001590YS02001593    1.00   0.13  0.01  0.00  0.08  0.00  0.79  0.00  0.00  0.00
  YS02001593YS02001596    1.00   0.14  0.00  0.00  0.10  0.01  0.00  0.76  0.02  0.00
  YS02001596YS02001600    1.00   0.14  0.00  0.00  0.16  0.02  0.00  0.68  0.05  0.00
  YS02001600YS02001601    1.00   0.13  0.01  0.00  0.86  0.00  0.00  0.00  0.63  0.00
  YS02001601YS02001602    1.00   0.13  0.01  0.00  0.86  0.00  0.00  0.00  0.00  0.00
  YS02001602YS02001605    1.00   0.14  0.00  0.00  0.86  0.00  0.00  0.00  0.00  0.00
  YS02001605YS02001607    1.00   0.14  0.00  0.00  0.86  0.00  0.00  0.00  0.00  0.00
  YS02001607YS02001610    1.00   0.13  0.01  0.00  0.86  0.00  0.00  0.00  0.02  0.00
  YS02001610YS02001613    1.00   0.13  0.00  0.00  0.87  0.00  0.00  0.00  0.01  0.00
  YS02001613YS02001616    1.00   0.13  0.00  0.00  0.87  0.00  0.00  0.00  0.01  0.00
  YS02001616YS02001619    1.00   0.13  0.00  0.00  0.87  0.00  0.00  0.00  0.00  0.00
  YS02001619YS02001622    1.00   0.13  0.00  0.00  0.87  0.00  0.00  0.00  0.34  0.00
  YS02001622YS02001625    1.00   0.13  0.00  0.00  0.87  0.00  0.00  0.00  0.05  0.00
  YS02001625YS02001629    1.00   0.13  0.05  0.00  0.12  0.00  0.69  0.00  0.00  0.00
  YS02001629YS02163301    1.00   0.16  0.01  0.00  0.83  0.00  0.00  0.00  0.00  0.00
  YS02001633YS02163601    1.00   0.00  0.01  0.00  0.99  0.00  0.00  0.00  0.15  0.00
  YS02001641YS02001644    1.00   0.00  0.01  0.00  0.99  0.00  0.00  0.00  0.00  0.00
  YS02001644YS02001647    1.00   0.00  0.18  0.00  0.82  0.00  0.00  0.00  0.00  0.00
  YS02001647YS02001649    1.00   0.00  0.18  0.00  0.53  0.29  0.00  0.00  0.58  0.00
  YS02001649YS02001757    1.00   0.00  0.00  0.00  0.68  0.31  0.00  0.00  0.53  0.00
  YS02001652YS02001649    1.00   0.00  0.00  0.00  0.96  0.04  0.00  0.00  0.79  0.00
  YS02001655YS02001652    1.00   0.00  0.00  0.00  0.14  0.01  0.00  0.85  0.04  0.00
  YS02001658YS02001655    1.00   0.00  0.14  0.00  0.64  0.22  0.00  0.00  0.73  0.00
  YS02001661YS02001658    1.00   0.14  0.00  0.00  0.50  0.36  0.00  0.00  0.74  0.00
  YS02001664YS02001661    1.00   0.13  0.00  0.00  0.78  0.09  0.00  0.00  0.86  0.00
  YS02001745YS02001748    1.00   0.00  0.00  0.00  0.06  0.01  0.00  0.94  0.03  0.00
  YS02001748YS02001751    1.00   0.00  0.00  0.00  0.81  0.19  0.00  0.00  0.76  0.00
  YS02001751YS02001754    1.00   0.00  0.00  0.00  0.11  0.00  0.00  0.88  0.02  0.00
  YS02001754YS02001757    1.00   0.00  0.00  0.00  1.00  0.00  0.00  0.00  0.87  0.00
  YS02001757CaochengTiaoxuchi    1.00   0.00  0.00  0.00  1.00  0.00  0.00  0.00  0.87  0.00
  YS02001759YS02001757    1.00   0.00  0.00  0.00  1.00  0.00  0.00  0.00  0.63  0.00
  YS02001762YS02001759    1.00   0.00  0.00  0.00  1.00  0.00  0.00  0.00  0.05  0.00
  YS02001765YS02001762    1.00   0.00  0.00  0.00  1.00  0.00  0.00  0.00  0.76  0.00
  YS02001767YS02001765    1.00   0.00  0.00  0.00  1.00  0.00  0.00  0.00  0.00  0.00
  YS02001770YS02001767    1.00   0.00  0.00  0.00  1.00  0.00  0.00  0.00  0.00  0.00
  YS02001774YS02001770    1.00   0.00  0.13  0.00  0.60  0.00  0.26  0.00  0.03  0.00
  YS02001779YS02001774    1.00   0.00  0.00  0.00  1.00  0.00  0.00  0.00  0.80  0.00
  YS02001783YS02001784    1.00   0.00  0.19  0.00  0.81  0.00  0.00  0.00  0.57  0.00
  YS02001784YS02001785    1.00   0.00  0.00  0.00  1.00  0.00  0.00  0.00  0.18  0.00
  YS02001786YS02001788    1.00   0.00  0.00  0.00  0.80  0.20  0.00  0.00  0.00  0.00
  YS02001788YS02001790    1.00   0.00  0.00  0.00  0.21  0.79  0.00  0.00  0.83  0.00
  YS02001790YS02001791    1.00   0.00  0.00  0.00  0.01  0.99  0.00  0.00  0.16  0.00
  YS02001791YS02001793    1.00   0.00  0.00  0.00  0.00  1.00  0.00  0.00  0.01  0.00
  YS02001793JiankangQianchi    1.00   0.00  0.00  0.00  0.99  0.00  0.00  0.00  0.97  0.00
  YS02001882YS02001884    1.00   0.15  0.01  0.00  0.83  0.00  0.00  0.00  0.00  0.00
  YS02001884YS02001887    1.00   0.06  0.05  0.00  0.89  0.00  0.00  0.00  0.00  0.00
  YS02001887YS02001890    1.00   0.00  0.00  0.00  0.97  0.00  0.03  0.00  0.00  0.00
  YS02001890YS02001895    1.00   0.00  0.17  0.00  0.83  0.00  0.00  0.00  0.00  0.00
  YS02001895YS02001898    1.00   0.17  0.00  0.00  0.81  0.00  0.02  0.00  0.00  0.00
  YS02001898YS02001901    1.00   0.17  0.00  0.00  0.83  0.00  0.00  0.00  0.02  0.00
  YS02001901YS02001904    1.00   0.17  0.00  0.00  0.83  0.00  0.00  0.00  0.00  0.00
  YS02001904YS02001907    1.00   0.00  0.17  0.00  0.83  0.00  0.00  0.00  0.00  0.00
  YS02001907YS02006553    1.00   0.00  0.02  0.00  0.98  0.00  0.00  0.00  0.00  0.00
  YS02001910YS02001907    1.00   0.00  0.00  0.00  0.97  0.00  0.00  0.03  0.12  0.00
  YS02001915YS02001910    1.00   0.00  0.00  0.00  0.96  0.04  0.00  0.00  0.17  0.00
  YS02001918YS02001915    1.00   0.00  0.01  0.00  0.98  0.02  0.00  0.00  0.79  0.00
  YS02001920YS02001918    1.00   0.00  0.01  0.00  0.99  0.00  0.00  0.00  0.00  0.00
  YS02001923YS02001920    1.00   0.00  0.00  0.00  1.00  0.00  0.00  0.00  0.95  0.00
  YS02001926YS02001923    1.00   0.00  0.07  0.00  0.03  0.00  0.89  0.00  0.00  0.00
  YS02001929YS02001926    1.00   0.00  0.13  0.00  0.87  0.00  0.00  0.00  0.85  0.00
  YS02006553YS02006556    1.00   0.01  0.00  0.00  0.99  0.00  0.00  0.00  0.03  0.00
  YS02006556YS02006558    1.00   0.00  0.00  0.00  1.00  0.00  0.00  0.00  0.00  0.00
  YS02006558YS02006561    1.00   0.19  0.00  0.00  0.03  0.78  0.00  0.00  0.18  0.00
  YS02006561YS02001783    1.00   0.19  0.00  0.00  0.06  0.75  0.00  0.00  0.71  0.00
  YS02163301YS02001633    1.00   0.00  0.16  0.00  0.84  0.00  0.00  0.00  0.00  0.00
  YS02163601YS02164001    1.00   0.00  0.08  0.00  0.92  0.00  0.00  0.00  0.00  0.00
  YS02164001YS02001641    1.00   0.01  0.07  0.00  0.92  0.00  0.00  0.00  0.06  0.00
  
  
  *************************
  Conduit Surcharge Summary
  *************************
  
  ----------------------------------------------------------------------------
                                                           Hours        Hours 
                         --------- Hours Full --------   Above Full   Capacity
  Conduit                Both Ends  Upstream  Dnstream   Normal Flow   Limited
  ----------------------------------------------------------------------------
  WS02003072WS02003073        0.01      0.01      0.01      1.53         0.01
  WS02004404WS02004405        0.01      0.01      0.01      1.82         0.01
  WS02004405WS02004406        0.01      0.01      0.01      0.54         0.01
  WS02006109WS02006110        0.50      0.50      1.41      0.65         0.01
  WS02006110WS02006113        0.01      0.01      1.39      0.01         0.01
  WS02006111WS02006112        0.01      0.01      1.49      0.01         0.01
  WS02006112WS02006115        0.01      0.01      0.64      0.01         0.01
  WS02006228WS02006109        1.35      1.42      1.35      1.59         1.35
  WS02006229WS02006228        1.35      1.37      1.35      1.53         1.33
  WS02006230WS02006229        1.45      1.51      1.45      2.61         1.45
  WS02006231WS02006230        0.50      0.50      0.76      2.17         0.01
  WS02006232WS02006231        0.69      0.69      1.41      0.78         0.01
  WS02006234WS02006232        1.26      1.26      1.41      0.76         0.75
  WS02006235WS02006234        1.12      1.13      1.30      1.98         0.03
  WS02006238WS02006235        1.34      1.34      1.41      0.01         0.01
  WS02006239WS02006238        1.34      1.36      1.38      1.35         1.12
  WS02006240WS02006239        1.31      1.33      1.31      1.36         1.03
  WS02006242WS02006240        1.33      1.33      1.34      1.44         0.01
  WS02006243WS02006242        1.33      1.33      1.34      0.01         0.07
  WS02006245WS02006243        1.32      1.32      1.32      0.82         0.76
  WS02006247WS02006245        1.32      1.32      1.32      1.67         1.30
  WS02006248WS02006247        1.32      1.32      1.32      0.01         0.07
  WS02006249WS02006248        1.31      1.31      1.31      1.65         0.01
  WS02006251WS02006249        1.31      1.31      1.31      1.40         1.22
  WS02006252WS02006251        1.48      1.48      1.48      1.48         0.01
  WS02006256WS02006235        1.97      2.03      3.99      1.17         0.01
  YS02001580YS02001583        0.36      0.36      0.40      0.01         0.01
  YS02001583YS02001586        0.37      0.37      0.47      0.01         0.01
  YS02001586YS02001590        0.47      0.47      0.53      0.01         0.01
  YS02001590YS02001593        0.54      0.54      0.55      0.55         0.01
  YS02001593YS02001596        0.54      0.54      0.64      0.01         0.01
  YS02001596YS02001600        0.68      0.68      0.78      0.01         0.01
  YS02001600YS02001601        0.83      0.83      1.12      0.01         0.01
  YS02001601YS02001602        1.01      1.01      1.16      0.78         0.01
  YS02001602YS02001605        0.95      0.95      1.01      2.05         0.01
  YS02001605YS02001607        0.91      0.95      0.91      1.08         0.91
  YS02001607YS02001610        0.51      0.51      0.53      0.01         0.01
  YS02001610YS02001613        0.50      0.50      0.53      0.01         0.01
  YS02001613YS02001616        0.47      0.47      0.50      0.01         0.01
  YS02001616YS02001619        0.46      0.46      0.47      0.01         0.01
  YS02001619YS02001622        0.45      0.46      0.45      0.54         0.43
  YS02001622YS02001625        0.45      0.45      0.61      0.01         0.01
  YS02001625YS02001629        0.42      0.42      0.61      0.01         0.01
  YS02001629YS02163301        0.61      0.61      0.61      0.10         0.13
  YS02001633YS02163601        0.63      0.63      0.66      0.27         0.27
  YS02001641YS02001644        0.54      0.56      0.54      1.21         0.53
  YS02001644YS02001647        0.36      0.36      0.54      0.01         0.01
  YS02001647YS02001649        0.36      0.36      0.46      0.01         0.01
  YS02001649YS02001757        0.46      0.46      0.51      0.05         0.05
  YS02001652YS02001649        0.33      0.33      0.46      0.01         0.01
  YS02001655YS02001652        0.22      0.22      0.31      0.01         0.01
  YS02001658YS02001655        0.10      0.10      0.22      0.01         0.01
  YS02001661YS02001658        0.01      0.01      0.10      0.01         0.01
  YS02001664YS02001661        0.01      0.01      0.01      0.01         0.01
  YS02001745YS02001748        0.01      0.01      0.05      0.01         0.01
  YS02001748YS02001751        0.08      0.08      0.14      0.01         0.01
  YS02001751YS02001754        0.14      0.14      0.25      0.01         0.01
  YS02001754YS02001757        0.27      0.27      0.51      0.01         0.01
  YS02001757CaochengTiaoxuchi        0.51      0.51      1.11      0.19         0.19
  YS02001759YS02001757        0.43      0.43      0.51      0.01         0.01
  YS02001762YS02001759        0.41      0.41      0.43      0.01         0.01
  YS02001765YS02001762        0.37      0.37      0.41      0.01         0.01
  YS02001767YS02001765        0.34      0.34      0.37      0.01         0.02
  YS02001770YS02001767        0.34      0.34      0.34      0.26         0.24
  YS02001774YS02001770        0.33      0.33      0.39      0.01         0.01
  YS02001779YS02001774        0.24      0.24      0.39      0.01         0.01
  YS02001783YS02001784        0.29      0.32      0.29      0.45         0.29
  YS02001784YS02001785        0.20      0.29      0.20      0.65         0.20
  YS02001786YS02001788        0.01      0.20      0.01      0.55         0.01
  YS02001790YS02001791        0.01      0.01      0.01      0.29         0.01
  YS02001793JiankangQianchi        0.01      0.01      7.70      0.01         0.01
  YS02001882YS02001884        0.27      0.27      0.28      0.01         0.01
  YS02001884YS02001887        0.30      0.30      0.31      0.01         0.01
  YS02001887YS02001890        0.32      0.32      0.33      0.01         0.01
  YS02001890YS02001895        0.26      0.26      0.34      0.01         0.01
  YS02001895YS02001898        0.25      0.25      0.26      0.01         0.01
  YS02001898YS02001901        0.26      0.26      0.30      0.01         0.01
  YS02001901YS02001904        0.29      0.29      0.30      0.01         0.01
  YS02001904YS02001907        0.29      0.29      0.54      0.01         0.01
  YS02001907YS02006553        0.66      0.66      0.71      0.01         0.01
  YS02001910YS02001907        0.34      0.34      0.52      0.01         0.01
  YS02001915YS02001910        0.27      0.27      0.34      0.01         0.01
  YS02001918YS02001915        0.19      0.19      0.27      0.01         0.01
  YS02001920YS02001918        0.19      0.19      0.21      0.01         0.01
  YS02001923YS02001920        0.16      0.16      0.21      0.01         0.01
  YS02001926YS02001923        0.01      0.01      0.01      0.01         0.01
  YS02001929YS02001926        0.01      0.01      0.01      0.01         0.01
  YS02006553YS02006556        0.43      0.43      0.53      0.01         0.01
  YS02006556YS02006558        0.48      0.48      0.55      0.01         0.01
  YS02006558YS02006561        0.22      0.41      0.22      0.61         0.22
  YS02006561YS02001783        0.16      0.16      0.32      0.01         0.01
  YS02163301YS02001633        0.61      0.61      0.65      0.01         0.01
  YS02163601YS02164001        0.57      0.57      0.66      0.07         0.01
  YS02164001YS02001641        0.56      0.57      0.56      0.56         0.46
  
  
  ***************
  Pumping Summary
  ***************
  
  ---------------------------------------------------------------------------------------------------------
                                                  Min       Avg       Max     Total     Power    % Time Off
                        Percent   Number of      Flow      Flow      Flow    Volume     Usage    Pump Curve
  Pump                 Utilized   Start-Ups       LPS       LPS       LPS  10^6 ltr     Kw-hr    Low   High
  ---------------------------------------------------------------------------------------------------------
  CC-R1                   16.83          16      0.00    683.00    683.00     3.310     60.54    0.0   28.0
  CC-R2                   15.49          16      0.00    683.00    683.00     3.046     55.68    0.0   30.4
  CC-S1                   21.52          16      0.00    200.00    200.00     1.240      7.33    0.0    0.0
  CC-S2                   18.53          16      0.00    200.00    200.00     1.067      6.30    0.0    0.0
  JK-R1                    5.79          11      0.00   1000.00   1000.00     1.668     20.06    0.0    0.0
  JK-R2                    0.16           1      0.00   1000.00   1000.00     0.047      0.36    0.0    0.0
  JK-S                    14.58          23      0.00    300.00    300.00     1.260     16.28    0.0    0.0
  XR-1                    97.91           2      0.00     95.00     95.00     2.679      9.60    0.0    0.0
  XR-2                    93.94           2      0.00     95.00     95.00     2.570      8.76    0.0    0.0
  XR-3                     0.00           1      0.00     95.00     95.00     0.000      0.00    0.0    0.0
  XR-4                     0.00           1      0.00     95.00     95.00     0.000      0.00    0.0    0.0
  

  Analysis begun on:  Wed Nov  5 16:31:55 2025
  Analysis ended on:  Wed Nov  5 16:31:57 2025
  Total elapsed time: 00:00:02