
  EPA STORM WATER MANAGEMENT MODEL - VERSION 5.2 (Build 5.2.4)
  PYSWMM TOOLKIT API - VERSION v1.0 (2023-11-27)
  ------------------------------------------------------------

  WARNING 04: minimum elevation drop used for Conduit WS02004404WS02004405
  WARNING 03: negative offset ignored for Link YS02001904YS02001907
  
  ****************
  Analysis Options
  ****************
  Flow Units ............... LPS
  Process Models:
    Rainfall/Runoff ........ YES
    RDII ................... NO
    Snowmelt ............... NO
    Groundwater ............ NO
    Flow Routing ........... YES
    Ponding Allowed ........ NO
    Water Quality .......... NO
  Infiltration Method ...... HORTON
  Flow Routing Method ...... DYNWAVE
  Surcharge Method ......... EXTRAN
  Starting Date ............ 08/28/2015 08:00:00
  Ending Date .............. 08/28/2015 16:00:00
  Antecedent Dry Days ...... 8.0
  Report Time Step ......... 00:01:00
  Wet Time Step ............ 00:01:00
  Dry Time Step ............ 00:01:00
  Routing Time Step ........ 30.00 sec
  Variable Time Step ....... YES
  Maximum Trials ........... 8
  Number of Threads ........ 4
  Head Tolerance ........... 0.001500 m
  
  
  **************************        Volume         Depth
  Runoff Quantity Continuity     hectare-m            mm
  **************************     ---------       -------
  Initial LID Storage ......         0.049         1.488
  Total Precipitation ......         1.745        52.602
  Evaporation Loss .........         0.000         0.000
  Infiltration Loss ........         0.076         2.281
  Surface Runoff ...........         1.276        38.468
  Final Storage ............         0.443        13.360
  Continuity Error (%) .....        -0.035
  
  
  **************************        Volume        Volume
  Flow Routing Continuity        hectare-m      10^6 ltr
  **************************     ---------     ---------
  Dry Weather Inflow .......         0.602         6.020
  Wet Weather Inflow .......         1.276        12.760
  Groundwater Inflow .......         0.000         0.000
  RDII Inflow ..............         0.000         0.000
  External Inflow ..........         0.105         1.045
  External Outflow .........         1.687        16.872
  Flooding Loss ............         0.269         2.689
  Evaporation Loss .........         0.000         0.000
  Exfiltration Loss ........         0.000         0.000
  Initial Stored Volume ....         0.303         3.031
  Final Stored Volume ......         0.334         3.343
  Continuity Error (%) .....        -0.208
  
  
  *************************
  Highest Continuity Errors
  *************************
  Node YS02001884 (5.22%)
  Node YS02001583 (-4.40%)
  Node YS02001774 (1.82%)
  Node WS02006256 (-1.21%)
  
  
  ***************************
  Time-Step Critical Elements
  ***************************
  Link WS02004404WS02004405 (33.54%)
  Link WS02006238WS02006235 (19.35%)
  Link WS02006252WS02006251 (13.63%)
  Link YS02001791YS02001793 (9.53%)
  Link WS02003066WSF200 (5.39%)
  
  
  ********************************
  Highest Flow Instability Indexes
  ********************************
  Link WS02006113WS02006111 (28)
  Link WS02006252WS02006251 (20)
  Link WS02006238WS02006235 (18)
  Link WS02006111WS02006112 (15)
  Link WS02006256WS02006235 (14)
  
  
  *********************************
  Most Frequent Nonconverging Nodes
  *********************************
  Node CC-1 (18.24%)
  Node CC-2 (18.24%)
  Node JK-1 (18.24%)
  Node JK-2 (18.24%)
  Node WSC (18.24%)
  
  
  *************************
  Routing Time Step Summary
  *************************
  Minimum Time Step           :     0.01 sec
  Average Time Step           :     3.32 sec
  Maximum Time Step           :     7.04 sec
  % of Time in Steady State   :     0.00
  Average Iterations per Step :     3.42
  % of Steps Not Converging   :    18.24
  Time Step Frequencies       :
     30.000 - 13.228 sec      :     0.00 %
     13.228 -  5.833 sec      :    25.26 %
      5.833 -  2.572 sec      :    30.44 %
      2.572 -  1.134 sec      :    21.61 %
      1.134 -  0.500 sec      :    22.68 %
  
  
  ***************************
  Subcatchment Runoff Summary
  ***************************
  
  ------------------------------------------------------------------------------------------------------------------------------
                            Total      Total      Total      Total     Imperv       Perv      Total       Total     Peak  Runoff
                           Precip      Runon       Evap      Infil     Runoff     Runoff     Runoff      Runoff   Runoff   Coeff
  Subcatchment                 mm         mm         mm         mm         mm         mm         mm    10^6 ltr      LPS
  ------------------------------------------------------------------------------------------------------------------------------
  sub60                     52.60       0.00       0.00       1.34      34.80       3.53      38.33        0.50   387.26   0.729
  sub61                     52.60       0.00       0.00       2.06      34.77       5.25      40.02        0.73   565.76   0.761
  sub62                     52.60       0.00       0.00       0.91      37.06       2.40      39.46        1.08   774.11   0.750
  sub63                     52.60       0.00       0.00       3.81      29.78       8.67      38.45        0.87   645.55   0.731
  sub64                     52.60       0.00       0.00       1.82      33.90       4.32      38.23        0.92   631.43   0.727
  sub65                     52.60       0.00       0.00       1.68      36.59       3.94      40.53        1.12   735.31   0.771
  sub66                     52.60       0.00       0.00       4.50      28.78       7.60      36.39        1.70   959.03   0.692
  sub67                     52.60       0.00       0.00       0.90      38.00       2.49      40.49        0.75   597.26   0.770
  sub68                     52.60       0.00       0.00       1.58      33.56       4.03      37.59        1.03   772.32   0.715
  sub69                     52.60       0.00       0.00       1.45      35.36       4.80      40.16        1.49   950.50   0.763
  sub70                     52.60       0.00       0.00       4.95      28.31       9.69      38.01        1.10   552.67   0.723
  sub71                     52.60       0.00       0.00       0.84      33.67       2.17      35.83        0.94   637.25   0.681
  sub72                     52.60       0.00       0.00       0.80      36.36       2.01      38.37        0.53   326.62   0.729
  

  ***********************
  LID Performance Summary
  ***********************

  --------------------------------------------------------------------------------------------------------------------
                                         Total      Evap     Infil   Surface    Drain    Initial     Final  Continuity
                                        Inflow      Loss      Loss   Outflow   Outflow   Storage   Storage       Error
  Subcatchment      LID Control             mm        mm        mm        mm        mm        mm        mm           %
  --------------------------------------------------------------------------------------------------------------------
  sub60             GreenRoof            52.60      0.00      0.00      0.00      0.00      7.05     59.69       -0.07
  sub61             GreenRoof            52.60      0.00      0.00      0.00      0.00      7.05     59.69       -0.07
  sub62             GreenRoof            52.60      0.00      0.00      0.00      0.00      7.05     59.69       -0.07
  sub63             GreenRoof            52.60      0.00      0.00      0.00      0.00      7.05     59.69       -0.07
  sub64             GreenRoof            52.60      0.00      0.00      0.00      0.00      7.05     59.69       -0.07
  sub65             GreenRoof            52.60      0.00      0.00      0.00      0.00      7.05     59.69       -0.07
  sub66             GreenRoof            52.60      0.00      0.00      0.00      0.00      7.05     59.69       -0.07
  sub67             GreenRoof            52.60      0.00      0.00      0.00      0.00      7.05     59.69       -0.07
  sub68             GreenRoof            52.60      0.00      0.00      0.00      0.00      7.05     59.69       -0.07
  sub69             GreenRoof            52.60      0.00      0.00      0.00      0.00      7.05     59.69       -0.07
  sub70             GreenRoof            52.60      0.00      0.00      0.00      0.00      7.05     59.69       -0.07
  sub71             GreenRoof            52.60      0.00      0.00      0.00      0.00      7.05     59.69       -0.07
  sub72             GreenRoof            52.60      0.00      0.00      0.00      0.00      7.05     59.69       -0.07
  
  ******************
  Node Depth Summary
  ******************
  
  ---------------------------------------------------------------------------------
                                 Average  Maximum  Maximum  Time of Max    Reported
                                   Depth    Depth      HGL   Occurrence   Max Depth
  Node                 Type       Meters   Meters   Meters  days hr:min      Meters
  ---------------------------------------------------------------------------------
  WS02001211           JUNCTION     0.60     0.64     5.48     0  02:46        0.64
  WS02001212           JUNCTION     0.33     0.38     5.45     0  02:43        0.38
  WS02001213           JUNCTION     0.53     0.65     5.41     0  02:42        0.65
  WS02003059           JUNCTION     0.59     0.72     5.40     0  02:43        0.72
  WS02003060           JUNCTION     0.30     0.45     5.38     0  02:41        0.45
  WS02003066           JUNCTION     0.15     0.30     5.85     0  02:38        0.30
  WS02003067           JUNCTION     0.43     0.70     6.02     0  02:37        0.70
  WS02003069           JUNCTION     0.33     0.51     5.09     0  02:39        0.51
  WS02003072           JUNCTION     0.40     0.57     4.94     0  02:39        0.57
  WS02003073           JUNCTION     0.23     0.35     4.41     0  02:40        0.35
  WS02004138           JUNCTION     0.13     0.14     7.39     0  00:29        0.14
  WS02004139           JUNCTION     0.54     0.58     5.49     0  02:41        0.58
  WS02004401           JUNCTION     0.51     0.85     6.85     0  02:35        0.85
  WS02004402           JUNCTION     0.55     0.87     6.83     0  02:35        0.87
  WS02004403           JUNCTION     0.57     0.89     6.82     0  02:35        0.89
  WS02004404           JUNCTION     0.65     0.96     6.81     0  02:35        0.96
  WS02004405           JUNCTION     0.64     0.95     6.80     0  02:35        0.95
  WS02004406           JUNCTION     0.66     0.96     6.79     0  02:36        0.95
  WS02004407           JUNCTION     0.13     0.29     6.61     0  02:36        0.29
  WS02004409           JUNCTION     0.30     0.66     6.43     0  02:36        0.66
  WS02004410           JUNCTION     0.33     0.68     6.40     0  02:36        0.68
  WS02004411           JUNCTION     0.35     0.69     6.37     0  02:37        0.69
  WS02004412           JUNCTION     0.38     0.70     6.34     0  02:37        0.70
  WS02004413           JUNCTION     0.53     0.86     6.33     0  02:37        0.85
  WS02006109           JUNCTION     0.58     1.49     8.11     0  02:49        0.99
  WS02006110           JUNCTION     0.58     1.69     8.28     0  02:49        0.97
  WS02006111           JUNCTION     0.14     0.29     6.99     0  02:44        0.29
  WS02006112           JUNCTION     0.66     1.08     6.96     0  02:52        1.08
  WS02006113           JUNCTION     0.22     0.46     7.35     0  03:03        0.46
  WS02006115           JUNCTION     0.40     0.75     6.89     0  02:35        0.75
  WS02006116           JUNCTION     0.48     0.83     6.87     0  02:40        0.83
  WS02006228           JUNCTION     0.57     1.35     8.00     0  02:49        1.10
  WS02006229           JUNCTION     0.54     1.32     8.02     0  02:31        1.13
  WS02006230           JUNCTION     0.54     1.57     8.32     0  02:31        1.27
  WS02006231           JUNCTION     0.35     1.54     8.66     0  02:30        1.00
  WS02006232           JUNCTION     0.48     1.68     8.72     0  02:31        1.68
  WS02006234           JUNCTION     0.40     1.96     9.12     0  02:31        1.96
  WS02006235           JUNCTION     0.44     2.00     9.16     0  02:31        2.00
  WS02006238           JUNCTION     0.47     2.15     9.29     0  02:31        2.15
  WS02006239           JUNCTION     0.43     2.03     9.24     0  02:31        2.03
  WS02006240           JUNCTION     0.40     2.10     9.39     0  02:31        2.10
  WS02006242           JUNCTION     0.46     1.55     8.82     0  02:31        1.55
  WS02006243           JUNCTION     0.38     1.48     8.90     0  02:31        1.48
  WS02006245           JUNCTION     0.39     1.56     9.04     0  02:31        1.56
  WS02006247           JUNCTION     0.40     1.47     8.97     0  02:31        1.47
  WS02006248           JUNCTION     0.37     1.10     8.69     0  02:21        1.10
  WS02006249           JUNCTION     0.40     1.09     8.69     0  02:14        1.09
  WS02006251           JUNCTION     0.40     1.99     9.66     0  02:15        1.24
  WS02006252           JUNCTION     0.27     1.50     9.74     0  00:00        0.79
  WS02006256           JUNCTION     1.07     2.35     9.28     0  00:00        2.35
  WSF200               JUNCTION     0.13     0.31     5.54     0  02:40        0.31
  YS02001580           JUNCTION     0.09     1.05     9.59     0  02:17        1.05
  YS02001583           JUNCTION     0.11     1.11     9.61     0  02:17        0.98
  YS02001586           JUNCTION     0.20     1.13     9.30     0  02:17        1.13
  YS02001590           JUNCTION     0.31     1.40     9.26     0  02:17        1.40
  YS02001593           JUNCTION     0.24     1.34     9.20     0  02:18        1.34
  YS02001596           JUNCTION     0.33     1.70     9.11     0  02:18        1.70
  YS02001600           JUNCTION     0.43     1.87     9.00     0  02:18        1.87
  YS02001601           JUNCTION     0.63     2.06     8.90     0  02:17        2.06
  YS02001602           JUNCTION     0.53     1.87     8.77     0  02:17        1.87
  YS02001605           JUNCTION     0.49     1.78     8.68     0  02:17        1.77
  YS02001607           JUNCTION     0.47     1.68     8.53     0  02:31        1.68
  YS02001610           JUNCTION     0.51     1.68     8.48     0  02:17        1.68
  YS02001613           JUNCTION     0.47     1.69     8.53     0  02:22        1.69
  YS02001616           JUNCTION     0.40     1.61     8.52     0  02:22        1.61
  YS02001619           JUNCTION     0.38     1.61     8.54     0  02:22        1.61
  YS02001622           JUNCTION     0.36     1.59     8.49     0  02:31        1.57
  YS02001625           JUNCTION     0.62     1.78     8.38     0  02:20        1.78
  YS02001629           JUNCTION     0.50     1.85     8.40     0  02:20        1.85
  YS02001633           JUNCTION     0.58     2.04     8.49     0  02:31        1.98
  YS02001641           JUNCTION     0.55     2.03     8.46     0  02:31        1.94
  YS02001644           JUNCTION     0.54     1.92     8.35     0  02:22        1.92
  YS02001647           JUNCTION     0.32     1.74     8.35     0  02:22        1.71
  YS02001649           JUNCTION     0.37     1.94     8.33     0  02:23        1.90
  YS02001652           JUNCTION     0.25     2.16     8.76     0  02:35        1.73
  YS02001655           JUNCTION     0.18     2.20     9.05     0  02:35        1.49
  YS02001658           JUNCTION     0.13     1.59     8.73     0  02:22        1.23
  YS02001661           JUNCTION     0.16     1.16     8.57     0  02:23        1.00
  YS02001664           JUNCTION     0.07     0.51     8.44     0  02:23        0.48
  YS02001745           JUNCTION     0.07     0.73     8.25     0  02:24        0.72
  YS02001748           JUNCTION     0.12     1.75     8.83     0  02:22        1.16
  YS02001751           JUNCTION     0.15     2.20     9.08     0  02:22        1.35
  YS02001754           JUNCTION     0.21     2.13     8.74     0  02:22        1.59
  YS02001757           JUNCTION     0.38     2.10     8.36     0  02:22        1.93
  YS02001759           JUNCTION     0.32     1.98     8.35     0  02:22        1.90
  YS02001762           JUNCTION     0.31     1.98     8.38     0  02:22        1.89
  YS02001765           JUNCTION     0.29     1.93     8.38     0  02:22        1.86
  YS02001767           JUNCTION     0.29     1.90     8.39     0  02:22        1.85
  YS02001770           JUNCTION     0.30     1.93     8.43     0  02:22        1.88
  YS02001774           JUNCTION     0.37     1.99     8.41     0  02:22        1.95
  YS02001779           JUNCTION     0.19     1.68     8.37     0  02:20        1.68
  YS02001783           JUNCTION     0.27     1.35     7.49     0  02:22        1.31
  YS02001784           JUNCTION     0.28     1.27     7.34     0  02:31        1.27
  YS02001786           JUNCTION     0.24     0.92     6.95     0  02:22        0.87
  YS02001788           JUNCTION     0.17     0.62     6.60     0  02:24        0.62
  YS02001790           JUNCTION     0.21     0.72     6.37     0  02:23        0.72
  YS02001791           JUNCTION     0.13     0.44     5.91     0  02:23        0.43
  YS02001793           JUNCTION     0.07     0.29     5.12     0  02:30        0.28
  YS02001882           JUNCTION     0.33     1.83     8.55     0  02:22        1.83
  YS02001884           JUNCTION     0.41     1.93     8.55     0  02:22        1.93
  YS02001887           JUNCTION     0.49     2.00     8.54     0  02:22        2.00
  YS02001890           JUNCTION     0.52     1.81     8.32     0  02:22        1.81
  YS02001895           JUNCTION     0.30     1.75     8.50     0  02:22        1.75
  YS02001898           JUNCTION     0.30     1.77     8.51     0  02:22        1.77
  YS02001901           JUNCTION     0.41     1.83     8.44     0  02:22        1.83
  YS02001904           JUNCTION     0.39     1.74     8.37     0  02:31        1.74
  YS02001907           JUNCTION     0.71     1.96     8.25     0  02:22        1.96
  YS02001910           JUNCTION     0.51     1.95     8.46     0  02:23        1.95
  YS02001915           JUNCTION     0.32     1.90     8.62     0  02:23        1.90
  YS02001918           JUNCTION     0.16     1.81     8.88     0  02:22        1.81
  YS02001920           JUNCTION     0.24     2.10     9.11     0  02:22        1.94
  YS02001923           JUNCTION     0.12     2.03     9.29     0  02:22        1.76
  YS02001926           JUNCTION     0.16     1.90     9.35     0  02:22        1.62
  YS02001929           JUNCTION     0.09     1.78     9.47     0  02:22        1.40
  YS02006553           JUNCTION     0.71     1.97     8.26     0  02:22        1.97
  YS02006556           JUNCTION     0.68     1.95     8.26     0  02:22        1.94
  YS02006558           JUNCTION     0.72     1.99     8.25     0  02:22        1.98
  YS02006561           JUNCTION     0.16     1.05     7.71     0  02:22        0.88
  YS02163301           JUNCTION     0.52     1.93     8.45     0  02:31        1.91
  YS02163601           JUNCTION     0.61     2.08     8.48     0  02:31        2.00
  YS02164001           JUNCTION     0.54     2.05     8.51     0  02:31        1.93
  CC-1                 OUTFALL      0.00     0.00     0.00     0  00:00        0.00
  CC-2                 OUTFALL      0.00     0.00     0.00     0  00:00        0.00
  JK-1                 OUTFALL      0.00     0.00     0.00     0  00:00        0.00
  JK-2                 OUTFALL      0.00     0.00     0.00     0  00:00        0.00
  WSC                  OUTFALL      0.23     0.35     1.02     0  02:40        0.35
  CC-storage           STORAGE      0.82     1.59     7.09     0  02:40        1.59
  JK-storage           STORAGE      3.28     4.24     5.04     0  02:30        4.20
  XR-storage           STORAGE      7.83     9.26     7.26     0  08:00        9.26
  
  
  *******************
  Node Inflow Summary
  *******************
  
  -------------------------------------------------------------------------------------------------
                                  Maximum  Maximum                  Lateral       Total        Flow
                                  Lateral    Total  Time of Max      Inflow      Inflow     Balance
                                   Inflow   Inflow   Occurrence      Volume      Volume       Error
  Node                 Type           LPS      LPS  days hr:min    10^6 ltr    10^6 ltr     Percent
  -------------------------------------------------------------------------------------------------
  WS02001211           JUNCTION      7.35   200.23     0  02:53       0.212        5.44       0.611
  WS02001212           JUNCTION      0.00   201.76     0  02:48           0        5.41       0.290
  WS02001213           JUNCTION      0.00   203.22     0  03:44           0        5.39       0.331
  WS02003059           JUNCTION      0.00   207.39     0  03:43           0        5.38       0.592
  WS02003060           JUNCTION     16.53   747.98     0  02:41       0.476        8.93       0.158
  WS02003066           JUNCTION      0.00   532.91     0  02:38           0         3.1       0.041
  WS02003067           JUNCTION      0.00   532.80     0  02:37           0        3.11       0.132
  WS02003069           JUNCTION      0.32   744.69     0  02:39     0.00922        8.91       0.167
  WS02003072           JUNCTION      0.00   744.25     0  02:39           0         8.9       0.229
  WS02003073           JUNCTION      1.82   745.70     0  02:40      0.0524        8.93       0.236
  WS02004138           JUNCTION      0.00   380.00     0  00:00           0        5.25       0.053
  WS02004139           JUNCTION      0.32   191.16     0  00:29     0.00924        5.26       0.509
  WS02004401           JUNCTION      0.00   538.42     0  02:33           0         3.2       0.311
  WS02004402           JUNCTION      0.00   537.28     0  02:33           0        3.19       0.317
  WS02004403           JUNCTION      0.00   536.08     0  02:35           0        3.18       0.311
  WS02004404           JUNCTION      0.16   535.21     0  02:36     0.00467        3.18       0.259
  WS02004405           JUNCTION      0.04   535.59     0  02:36      0.0011        3.17       0.390
  WS02004406           JUNCTION      0.00   535.84     0  02:35           0        3.16       0.647
  WS02004407           JUNCTION      0.00   535.28     0  02:36           0        3.14       0.031
  WS02004409           JUNCTION      0.00   535.01     0  02:36           0        3.14       0.076
  WS02004410           JUNCTION      0.00   533.98     0  02:36           0        3.14       0.129
  WS02004411           JUNCTION      0.00   533.58     0  02:37           0        3.13       0.169
  WS02004412           JUNCTION      0.00   533.07     0  02:37           0        3.13       0.229
  WS02004413           JUNCTION      0.00   533.14     0  02:37           0        3.12       0.411
  WS02006109           JUNCTION      1.23   573.70     0  02:31      0.0354        3.25       0.246
  WS02006110           JUNCTION      0.00   577.86     0  02:31           0        3.24       0.190
  WS02006111           JUNCTION      0.00   562.88     0  02:44           0        3.23       0.022
  WS02006112           JUNCTION      0.00   544.32     0  02:44           0        3.23       0.533
  WS02006113           JUNCTION      0.00   569.91     0  02:21           0        3.23       0.051
  WS02006115           JUNCTION      0.00   555.13     0  03:09           0        3.21       0.194
  WS02006116           JUNCTION      0.00   542.40     0  02:23           0        3.21       0.146
  WS02006228           JUNCTION      0.00   565.64     0  02:31           0        3.22       0.097
  WS02006229           JUNCTION      0.00   563.44     0  02:31           0        3.22       0.160
  WS02006230           JUNCTION     10.28   592.37     0  02:31       0.296        3.23       0.135
  WS02006231           JUNCTION      0.00   584.71     0  02:31           0        2.92      -0.183
  WS02006232           JUNCTION      0.00   583.04     0  02:31           0        2.94       0.432
  WS02006234           JUNCTION      0.00   577.54     0  02:31           0        2.92      -0.402
  WS02006235           JUNCTION      0.00   563.68     0  02:41           0           3       0.345
  WS02006238           JUNCTION      0.00   424.66     0  02:50           0        2.18      -0.126
  WS02006239           JUNCTION      0.00   424.39     0  02:15           0        2.14      -0.014
  WS02006240           JUNCTION      0.00   422.88     0  02:50           0         2.1      -0.056
  WS02006242           JUNCTION      0.00   422.96     0  02:15           0        2.08      -0.157
  WS02006243           JUNCTION      0.00   423.99     0  02:15           0        2.07      -0.056
  WS02006245           JUNCTION      0.00   424.20     0  02:15           0        2.08       0.476
  WS02006247           JUNCTION      0.00   424.11     0  02:15           0        2.08      -0.008
  WS02006248           JUNCTION      0.00   424.51     0  02:15           0        2.08      -0.075
  WS02006249           JUNCTION      0.00   458.97     0  00:00           0        2.25       0.500
  WS02006251           JUNCTION      0.08   411.20     0  02:15     0.00222        2.25       0.067
  WS02006252           JUNCTION      0.00   400.00     0  00:00           0        2.24      -0.395
  WS02006256           JUNCTION      0.00   300.00     0  00:00           0        1.21      -1.198
  WSF200               JUNCTION      0.00   532.97     0  02:38           0         3.1       0.017
  YS02001580           JUNCTION      0.00    80.39     0  02:17           0     0.00401      -1.346
  YS02001583           JUNCTION      0.00   150.47     0  02:17           0       0.015      -4.215
  YS02001586           JUNCTION    552.67   552.70     0  02:26         1.1        1.11       0.104
  YS02001590           JUNCTION      0.00   319.46     0  02:31           0       0.977      -0.035
  YS02001593           JUNCTION      0.00   318.61     0  02:31           0       0.977       0.003
  YS02001596           JUNCTION      0.00   318.02     0  02:26           0       0.977      -0.008
  YS02001600           JUNCTION      0.00   318.07     0  02:29           0       0.977       0.014
  YS02001601           JUNCTION    950.50  1267.97     0  02:25        1.49        2.46       0.032
  YS02001602           JUNCTION      0.00   503.87     0  02:17           0        1.78       0.024
  YS02001605           JUNCTION      0.00   503.48     0  02:17           0        1.72       0.034
  YS02001607           JUNCTION      0.00   503.04     0  02:17           0        1.72       0.109
  YS02001610           JUNCTION      0.00   503.03     0  02:16           0        1.74       0.131
  YS02001613           JUNCTION      0.00   506.53     0  02:16           0         1.5       0.112
  YS02001616           JUNCTION      0.00   508.58     0  02:16           0         1.5       0.023
  YS02001619           JUNCTION    959.03   959.03     0  02:26         1.7        3.18      -0.001
  YS02001622           JUNCTION      0.00   916.80     0  02:19           0        3.15      -0.002
  YS02001625           JUNCTION      0.00  1065.88     0  02:26           0         3.2       0.286
  YS02001629           JUNCTION      0.00   916.75     0  02:19           0        2.72       0.035
  YS02001633           JUNCTION    735.51  1329.88     0  02:20        1.12        3.78       0.093
  YS02001641           JUNCTION      0.00  1328.22     0  02:19           0        3.73       0.079
  YS02001644           JUNCTION    631.47  1687.38     0  02:20       0.919        4.64       0.073
  YS02001647           JUNCTION      0.00  1687.61     0  02:20           0        4.54       0.013
  YS02001649           JUNCTION      0.00  1864.73     0  02:19           0        5.42       0.008
  YS02001652           JUNCTION      0.00   681.89     0  02:24           0       0.879      -0.114
  YS02001655           JUNCTION      0.15   680.61     0  02:24     0.00443       0.878      -0.017
  YS02001658           JUNCTION      0.00   678.54     0  02:24           0       0.873      -0.074
  YS02001661           JUNCTION      0.00   850.78     0  02:24           0       0.873      -0.007
  YS02001664           JUNCTION    645.55   645.55     0  02:25       0.873       0.873      -0.009
  YS02001745           JUNCTION    387.26   387.26     0  02:25       0.504       0.504       0.245
  YS02001748           JUNCTION      0.04   505.56     0  02:23      0.0013       0.505      -0.390
  YS02001751           JUNCTION      0.01   411.58     0  02:24    0.000317       0.514       0.160
  YS02001754           JUNCTION      0.26   412.39     0  02:24     0.00749        0.53      -0.225
  YS02001757           JUNCTION      0.00  3080.45     0  02:24           0        7.76       0.016
  YS02001759           JUNCTION    565.80  1228.60     0  02:25       0.735        1.82      -0.014
  YS02001762           JUNCTION      0.00   692.28     0  02:27           0        1.08       0.026
  YS02001765           JUNCTION      0.00   692.30     0  02:27           0        1.08       0.035
  YS02001767           JUNCTION      0.54   691.44     0  02:27      0.0154        1.08       0.021
  YS02001770           JUNCTION    774.27   774.27     0  02:25        1.09        1.13       0.044
  YS02001774           JUNCTION      0.00   330.16     0  02:20           0      0.0767       1.858
  YS02001779           JUNCTION      0.01   337.16     0  02:20    0.000144      0.0338      -0.874
  YS02001783           JUNCTION      0.00  1156.80     0  02:25           0        2.91       0.008
  YS02001784           JUNCTION      1.06  1158.41     0  02:25      0.0305        2.94       0.017
  YS02001786           JUNCTION      0.06  1157.83     0  02:25     0.00162        2.94       0.024
  YS02001788           JUNCTION      0.07  1157.87     0  02:24     0.00204        2.94       0.009
  YS02001790           JUNCTION      0.15  1167.30     0  02:25     0.00446        2.94       0.017
  YS02001791           JUNCTION      0.00  1285.30     0  02:23           0        2.94      -0.014
  YS02001793           JUNCTION      0.00  1237.23     0  02:26           0        2.94       0.007
  YS02001882           JUNCTION      0.00    46.46     0  02:20           0      0.0123       5.625
  YS02001884           JUNCTION      0.00    75.99     0  02:19           0      0.0481       5.511
  YS02001887           JUNCTION    597.71   597.74     0  02:25       0.766       0.799       0.554
  YS02001890           JUNCTION      0.00   598.20     0  02:25           0       0.759       0.695
  YS02001895           JUNCTION      0.00   513.88     0  02:26           0        0.74       0.187
  YS02001898           JUNCTION      0.00   514.21     0  02:26           0       0.739       0.051
  YS02001901           JUNCTION      0.00   514.18     0  02:26           0       0.741       0.443
  YS02001904           JUNCTION      0.00   513.75     0  02:26           0       0.745       0.384
  YS02001907           JUNCTION      0.00  1510.25     0  02:23           0        2.28       0.794
  YS02001910           JUNCTION      0.00  1016.45     0  02:23           0        1.55       0.464
  YS02001915           JUNCTION    637.27  1015.96     0  02:23       0.938        1.58       0.103
  YS02001918           JUNCTION      0.00   452.05     0  02:23           0       0.671       0.001
  YS02001920           JUNCTION      2.87   451.41     0  02:23      0.0827       0.656       0.194
  YS02001923           JUNCTION      0.04   420.64     0  02:23     0.00109       0.558      -0.082
  YS02001926           JUNCTION      0.05   473.20     0  02:22      0.0015       0.538      -0.033
  YS02001929           JUNCTION    326.62   326.62     0  02:26       0.528       0.528      -0.093
  YS02006553           JUNCTION      0.00   798.65     0  02:33           0        1.89       0.627
  YS02006556           JUNCTION      0.00   798.81     0  02:33           0         1.9       0.429
  YS02006558           JUNCTION    773.20  1165.56     0  02:22        1.06        2.94       0.121
  YS02006561           JUNCTION      0.00  1169.49     0  02:22           0        2.91      -0.002
  YS02163301           JUNCTION      0.00   917.32     0  02:19           0        2.71       0.061
  YS02163601           JUNCTION      0.11  1329.26     0  02:20     0.00317        3.72       0.133
  YS02164001           JUNCTION      0.00  1328.43     0  02:20           0        3.72       0.069
  CC-1                 OUTFALL       0.00   683.00     0  00:00           0        3.26       0.000
  CC-2                 OUTFALL       0.00   683.00     0  00:00           0        3.02       0.000
  JK-1                 OUTFALL       0.00  1000.00     0  00:00           0        1.64       0.000
  JK-2                 OUTFALL       0.00  1000.00     0  00:00           0      0.0484       0.000
  WSC                  OUTFALL       0.00   745.41     0  02:40           0        8.91       0.000
  CC-storage           STORAGE       0.00  3080.33     0  02:24           0        9.98      -0.237
  JK-storage           STORAGE       0.00  1233.73     0  02:24           0        3.09       0.256
  XR-storage           STORAGE     200.00   200.00     0  00:00        5.76        6.36       0.001
  
  
  **********************
  Node Surcharge Summary
  **********************
  
  Surcharging occurs when water rises above the top of the highest conduit.
  ---------------------------------------------------------------------
                                               Max. Height   Min. Depth
                                   Hours       Above Crown    Below Rim
  Node                 Type      Surcharged         Meters       Meters
  ---------------------------------------------------------------------
  WS02006109           JUNCTION        1.32          0.671        1.149
  WS02006110           JUNCTION        0.48          0.785        1.065
  WS02006112           JUNCTION        0.64          0.081        1.599
  WS02006228           JUNCTION        1.31          0.522        1.678
  WS02006229           JUNCTION        1.33          0.525        1.925
  WS02006230           JUNCTION        0.48          0.495        1.075
  WS02006231           JUNCTION        0.66          0.831        0.699
  WS02006232           JUNCTION        1.39          0.980        0.500
  WS02006234           JUNCTION        1.07          1.240        0.000
  WS02006235           JUNCTION        1.28          1.290        0.000
  WS02006238           JUNCTION        1.34          1.430        0.000
  WS02006239           JUNCTION        1.28          1.290        0.000
  WS02006240           JUNCTION        1.31          1.390        0.000
  WS02006242           JUNCTION        1.32          0.820        0.000
  WS02006243           JUNCTION        1.30          0.770        0.000
  WS02006245           JUNCTION        1.30          0.850        0.000
  WS02006247           JUNCTION        1.30          0.760        0.000
  WS02006248           JUNCTION        1.29          0.380        0.000
  WS02006249           JUNCTION        1.29          0.390        0.000
  WS02006251           JUNCTION        0.76          0.963        0.217
  WS02006252           JUNCTION        1.45          1.100        0.000
  WS02006256           JUNCTION        4.18          2.050        0.000
  YS02001580           JUNCTION        0.37          0.450        0.000
  YS02001583           JUNCTION        0.38          0.470        0.030
  YS02001586           JUNCTION        0.47          0.510        0.000
  YS02001590           JUNCTION        0.53          0.750        0.000
  YS02001593           JUNCTION        0.53          0.718        0.122
  YS02001596           JUNCTION        0.63          0.965        0.105
  YS02001600           JUNCTION        0.76          1.190        0.000
  YS02001601           JUNCTION        1.08          1.440        0.000
  YS02001602           JUNCTION        0.97          1.270        0.000
  YS02001605           JUNCTION        0.92          1.180        0.000
  YS02001607           JUNCTION        0.51          0.680        0.000
  YS02001610           JUNCTION        0.53          0.680        0.000
  YS02001613           JUNCTION        0.50          0.693        0.007
  YS02001616           JUNCTION        0.47          0.610        0.000
  YS02001619           JUNCTION        0.46          0.610        0.000
  YS02001622           JUNCTION        0.46          0.590        0.030
  YS02001625           JUNCTION        0.61          0.780        0.000
  YS02001629           JUNCTION        0.42          0.470        0.000
  YS02001633           JUNCTION        0.63          1.020        0.040
  YS02001641           JUNCTION        0.56          1.026        0.074
  YS02001644           JUNCTION        0.54          0.920        0.000
  YS02001647           JUNCTION        0.37          0.743        0.157
  YS02001649           JUNCTION        0.46          0.938        0.112
  YS02001652           JUNCTION        0.32          1.130        0.000
  YS02001655           JUNCTION        0.22          1.200        0.000
  YS02001658           JUNCTION        0.11          0.589        0.711
  YS02001661           JUNCTION        0.01          0.094        1.296
  YS02001748           JUNCTION        0.06          0.674        0.516
  YS02001751           JUNCTION        0.16          1.200        0.000
  YS02001754           JUNCTION        0.26          1.085        0.065
  YS02001757           JUNCTION        0.51          1.097        0.113
  YS02001759           JUNCTION        0.43          0.982        0.228
  YS02001762           JUNCTION        0.40          0.979        0.171
  YS02001765           JUNCTION        0.37          0.928        0.172
  YS02001767           JUNCTION        0.35          0.898        0.132
  YS02001770           JUNCTION        0.33          0.905        0.015
  YS02001774           JUNCTION        0.39          0.990        0.060
  YS02001779           JUNCTION        0.25          0.680        0.000
  YS02001783           JUNCTION        0.33          0.547        1.053
  YS02001784           JUNCTION        0.30          0.474        1.016
  YS02001786           JUNCTION        0.21          0.122        1.308
  YS02001882           JUNCTION        0.28          0.830        0.000
  YS02001884           JUNCTION        0.29          0.870        0.000
  YS02001887           JUNCTION        0.32          0.950        0.000
  YS02001890           JUNCTION        0.33          0.760        0.000
  YS02001895           JUNCTION        0.27          0.750        0.000
  YS02001898           JUNCTION        0.27          0.740        0.000
  YS02001901           JUNCTION        0.31          0.834        0.036
  YS02001904           JUNCTION        0.30          0.742        0.108
  YS02001907           JUNCTION        0.52          0.950        0.000
  YS02001910           JUNCTION        0.35          0.951        0.149
  YS02001915           JUNCTION        0.28          0.897        0.103
  YS02001918           JUNCTION        0.21          0.810        0.000
  YS02001920           JUNCTION        0.22          1.102        0.038
  YS02001923           JUNCTION        0.01          0.820        0.000
  YS02001926           JUNCTION        0.01          0.900        0.000
  YS02001929           JUNCTION        0.01          0.780        0.000
  YS02006553           JUNCTION        0.53          0.973        0.217
  YS02006556           JUNCTION        0.43          0.909        0.441
  YS02006558           JUNCTION        0.42          0.886        0.514
  YS02006561           JUNCTION        0.18          0.245        0.905
  YS02163301           JUNCTION        0.61          0.934        0.096
  YS02163601           JUNCTION        0.65          1.080        0.000
  YS02164001           JUNCTION        0.57          1.049        0.051
  
  
  *********************
  Node Flooding Summary
  *********************
  
  Flooding refers to all water that overflows a node, whether it ponds or not.
  --------------------------------------------------------------------------
                                                             Total   Maximum
                                 Maximum   Time of Max       Flood    Ponded
                        Hours       Rate    Occurrence      Volume     Depth
  Node                 Flooded       LPS   days hr:min    10^6 ltr    Meters
  --------------------------------------------------------------------------
  WS02006234              0.01      0.73      0  02:31       0.000     0.000
  WS02006235              0.01      1.35      0  02:31       0.000     0.000
  WS02006238              0.01      1.21      0  02:31       0.000     0.000
  WS02006239              0.01      0.62      0  02:31       0.000     0.000
  WS02006240              0.01      0.69      0  02:31       0.000     0.000
  WS02006242              0.01      6.61      0  02:35       0.000     0.000
  WS02006243              0.01      0.42      0  02:31       0.000     0.000
  WS02006245              0.01      0.52      0  02:31       0.000     0.000
  WS02006247              0.01      0.59      0  02:31       0.000     0.000
  WS02006248              0.01     31.40      0  02:35       0.001     0.000
  WS02006249              0.71    111.69      0  02:14       0.163     0.000
  WS02006252              0.01    245.63      0  00:00       0.000     0.000
  WS02006256              1.12    293.19      0  00:00       0.364     0.000
  YS02001580              0.01     70.76      0  02:17       0.000     0.000
  YS02001586              0.28    235.31      0  02:26       0.120     0.000
  YS02001590              0.01      9.37      0  02:17       0.000     0.000
  YS02001600              0.01      3.64      0  02:18       0.000     0.000
  YS02001601              0.41    869.97      0  02:25       0.681     0.000
  YS02001602              0.32     62.05      0  02:34       0.065     0.000
  YS02001605              0.01      1.04      0  02:31       0.000     0.000
  YS02001607              0.01      0.51      0  02:31       0.000     0.000
  YS02001610              0.28    435.92      0  02:26       0.253     0.000
  YS02001616              0.01     12.73      0  02:31       0.000     0.000
  YS02001619              0.01     17.38      0  02:31       0.000     0.000
  YS02001625              0.27   1065.45      0  02:26       0.525     0.000
  YS02001629              0.07    100.54      0  02:24       0.014     0.000
  YS02001644              0.09    440.09      0  02:25       0.088     0.000
  YS02001652              0.01     48.71      0  02:35       0.000     0.000
  YS02001655              0.01    210.08      0  02:35       0.000     0.000
  YS02001751              0.01     46.83      0  02:22       0.000     0.000
  YS02001779              0.07    247.69      0  02:20       0.016     0.000
  YS02001882              0.01      6.19      0  02:22       0.000     0.000
  YS02001884              0.01      7.15      0  02:22       0.000     0.000
  YS02001887              0.01      5.62      0  02:22       0.000     0.000
  YS02001890              0.08     89.43      0  02:25       0.013     0.000
  YS02001895              0.01      2.17      0  02:22       0.000     0.000
  YS02001898              0.01      3.74      0  02:22       0.000     0.000
  YS02001907              0.17   1064.72      0  02:23       0.382     0.000
  YS02001918              0.01    117.13      0  02:22       0.001     0.000
  YS02001923              0.01     96.41      0  02:22       0.000     0.000
  YS02001926              0.01    232.59      0  02:22       0.001     0.000
  YS02001929              0.01    223.75      0  02:22       0.001     0.000
  YS02163601              0.01     26.75      0  02:31       0.000     0.000
  
  
  **********************
  Storage Volume Summary
  **********************
  
  ------------------------------------------------------------------------------------------------
                         Average    Avg   Evap  Exfil     Maximum    Max    Time of Max    Maximum
                          Volume   Pcnt   Pcnt   Pcnt      Volume   Pcnt     Occurrence    Outflow
  Storage Unit           1000 m³   Full   Loss   Loss     1000 m³   Full    days hr:min        LPS
  ------------------------------------------------------------------------------------------------
  CC-storage               2.293   35.8    0.0    0.0       4.440   69.3       0  02:40    1783.53
  JK-storage               0.165   56.6    0.0    0.0       0.213   73.1       0  02:30    2300.00
  XR-storage               0.940   65.3    0.0    0.0       1.111   77.2       0  08:00     380.00
  
  
  ***********************
  Outfall Loading Summary
  ***********************
  
  -----------------------------------------------------------
                         Flow       Avg       Max       Total
                         Freq      Flow      Flow      Volume
  Outfall Node           Pcnt       LPS       LPS    10^6 ltr
  -----------------------------------------------------------
  CC-1                  28.41    683.00    683.00       3.258
  CC-2                  25.83    683.00    683.00       3.020
  JK-1                  12.48   1000.00   1000.00       1.635
  JK-2                   0.24   1000.00   1000.00       0.048
  WSC                   99.93    370.15    745.41       8.909
  -----------------------------------------------------------
  System                33.38   3736.15   3366.23      16.872
  
  
  ********************
  Link Flow Summary
  ********************
  
  -----------------------------------------------------------------------------
                                 Maximum  Time of Max   Maximum    Max/    Max/
                                  |Flow|   Occurrence   |Veloc|    Full    Full
  Link                 Type          LPS  days hr:min     m/sec    Flow   Depth
  -----------------------------------------------------------------------------
  1                    CONDUIT    745.41     0  02:40      3.07    0.26    0.35
  WS02001211WS02001212 CONDUIT    201.76     0  02:48      0.54    0.15    0.51
  WS02001212WS02001213 CONDUIT    203.22     0  03:44      1.04    0.31    0.36
  WS02001213WS02003059 CONDUIT    207.39     0  03:43      0.47    0.34    0.67
  WS02003059WS02003060 CONDUIT    213.29     0  03:42      0.67    0.14    0.58
  WS02003060WS02003069 CONDUIT    744.37     0  02:39      1.77    0.29    0.40
  WS02003066WSF200     CONDUIT    532.97     0  02:38      2.73    0.09    0.23
  WS02003067WS02003066 CONDUIT    532.91     0  02:38      1.20    0.17    0.41
  WS02003069WS02003072 CONDUIT    744.25     0  02:39      1.51    0.36    0.45
  WS02003072WS02003073 CONDUIT    743.88     0  02:40      1.59    1.61    0.43
  WS02004138WS02004139 CONDUIT    190.84     0  00:29      2.17    0.04    0.33
  WS02004139WS02001211 CONDUIT    192.88     0  02:53      0.54    0.24    0.47
  WS02004401WS02004402 CONDUIT    537.28     0  02:33      0.97    0.64    0.86
  WS02004402WS02004403 CONDUIT    536.08     0  02:35      0.97    0.77    0.88
  WS02004403WS02004404 CONDUIT    535.05     0  02:36      0.92    0.39    0.93
  WS02004404WS02004405 CONDUIT    535.55     0  02:36      1.08    5.25    0.96
  WS02004405WS02004406 CONDUIT    535.84     0  02:35      0.99    1.06    0.95
  WS02004406WS02004407 CONDUIT    535.28     0  02:36      1.04    0.24    0.63
  WS02004407WS02004409 CONDUIT    535.01     0  02:36      1.49    0.19    0.48
  WS02004409WS02004410 CONDUIT    533.98     0  02:36      0.97    0.69    0.67
  WS02004410WS02004411 CONDUIT    533.58     0  02:37      0.94    0.73    0.68
  WS02004411WS02004412 CONDUIT    533.07     0  02:37      0.92    0.76    0.69
  WS02004412WS02004413 CONDUIT    533.14     0  02:37      0.82    0.36    0.78
  WS02004413WS02003067 CONDUIT    532.80     0  02:37      1.11    0.23    0.59
  WS02006109WS02006110 CONDUIT    577.86     0  02:31      1.15    1.11    1.00
  WS02006110WS02006113 CONDUIT    569.91     0  02:21      1.38    0.52    0.79
  WS02006111WS02006112 CONDUIT    544.32     0  02:44      1.82    0.26    0.67
  WS02006112WS02006115 CONDUIT    555.13     0  03:09      0.78    0.33    0.87
  WS02006113WS02006111 CONDUIT    562.88     0  02:44      2.47    0.67    0.46
  WS02006115WS02006116 CONDUIT    542.40     0  02:23      0.97    0.70    0.76
  WS02006116WS02004401 CONDUIT    538.42     0  02:33      0.98    0.74    0.84
  WS02006228WS02006109 CONDUIT    572.47     0  02:31      1.14    2.50    1.00
  WS02006229WS02006228 CONDUIT    565.64     0  02:31      1.15    1.87    1.00
  WS02006230WS02006229 CONDUIT    563.44     0  02:31      1.46   12.54    1.00
  WS02006231WS02006230 CONDUIT    582.09     0  02:31      1.61    8.83    1.00
  WS02006232WS02006231 CONDUIT    584.71     0  02:31      1.52    1.23    1.00
  WS02006234WS02006232 CONDUIT    583.04     0  02:31      1.51    1.18    1.00
  WS02006235WS02006234 CONDUIT    577.54     0  02:31      1.50    6.09    1.00
  WS02006238WS02006235 CONDUIT    425.21     0  02:15      1.57    0.95    1.00
  WS02006239WS02006238 CONDUIT    424.66     0  02:50      1.11    1.36    1.00
  WS02006240WS02006239 CONDUIT    424.39     0  02:15      1.24    1.34    1.00
  WS02006242WS02006240 CONDUIT    422.88     0  02:50      1.12    1.68    1.00
  WS02006243WS02006242 CONDUIT    422.96     0  02:15      1.39    0.90    1.00
  WS02006245WS02006243 CONDUIT    423.99     0  02:15      1.45    1.25    1.00
  WS02006247WS02006245 CONDUIT    424.20     0  02:15      1.44    3.36    1.00
  WS02006248WS02006247 CONDUIT    424.11     0  02:15      1.45    0.92    1.00
  WS02006249WS02006248 CONDUIT    424.51     0  02:15      1.37    2.33    1.00
  WS02006251WS02006249 CONDUIT    458.97     0  00:00      1.99    1.32    1.00
  WS02006252WS02006251 CONDUIT    411.12     0  02:15     25.11    1.51    1.00
  WS02006256WS02006235 CONDUIT    289.22     0  02:01      4.23    3.06    1.00
  WSF200WS02003060     CONDUIT    533.23     0  02:36      1.75    0.12    0.31
  YS02001580YS02001583 CONDUIT     80.39     0  02:17      0.60    0.31    1.00
  YS02001583YS02001586 CONDUIT    150.47     0  02:17      0.63    0.23    1.00
  YS02001586YS02001590 CONDUIT    319.46     0  02:31      1.26    0.56    1.00
  YS02001590YS02001593 CONDUIT    318.61     0  02:31      1.13    2.00    1.00
  YS02001593YS02001596 CONDUIT    318.02     0  02:26      1.74    0.50    1.00
  YS02001596YS02001600 CONDUIT    318.07     0  02:29      1.24    0.62    1.00
  YS02001600YS02001601 CONDUIT    318.32     0  02:31      1.13    0.55    1.00
  YS02001601YS02001602 CONDUIT    503.87     0  02:17      1.78    1.82    1.00
  YS02001602YS02001605 CONDUIT    503.48     0  02:17      1.78   10.65    1.00
  YS02001605YS02001607 CONDUIT    503.04     0  02:17      1.78    2.76    1.00
  YS02001607YS02001610 CONDUIT    503.03     0  02:16      0.64    0.48    1.00
  YS02001610YS02001613 CONDUIT    506.53     0  02:16      0.64    0.58    1.00
  YS02001613YS02001616 CONDUIT    508.58     0  02:16      0.65    0.44    1.00
  YS02001616YS02001619 CONDUIT    494.26     0  02:17      0.66    0.86    1.00
  YS02001619YS02001622 CONDUIT    916.80     0  02:19      1.17    1.35    1.00
  YS02001622YS02001625 CONDUIT    916.78     0  02:19      1.17    0.49    1.00
  YS02001625YS02001629 CONDUIT    916.75     0  02:19      1.17    0.44    1.00
  YS02001629YS02163301 CONDUIT    917.32     0  02:19      1.17    1.13    1.00
  YS02001633YS02163601 CONDUIT   1329.15     0  02:20      1.69    1.40    1.00
  YS02001641YS02001644 CONDUIT   1328.66     0  02:19      1.69    4.30    1.00
  YS02001644YS02001647 CONDUIT   1687.61     0  02:20      2.16    0.99    1.00
  YS02001647YS02001649 CONDUIT   1702.78     0  02:20      2.29    0.90    1.00
  YS02001649YS02001757 CONDUIT   1846.73     0  02:19      2.37    1.12    1.00
  YS02001652YS02001649 CONDUIT    684.16     0  02:24      0.87    0.34    1.00
  YS02001655YS02001652 CONDUIT    681.89     0  02:24      1.26    0.33    1.00
  YS02001658YS02001655 CONDUIT    680.46     0  02:24      1.87    0.29    1.00
  YS02001661YS02001658 CONDUIT    678.54     0  02:24      2.23    0.27    1.00
  YS02001664YS02001661 CONDUIT    850.78     0  02:24      2.19    0.27    0.72
  YS02001745YS02001748 CONDUIT    505.51     0  02:23      2.04    0.19    0.87
  YS02001748YS02001751 CONDUIT    411.57     0  02:24      1.60    0.21    1.00
  YS02001751YS02001754 CONDUIT    412.13     0  02:24      1.41    0.20    1.00
  YS02001754YS02001757 CONDUIT    412.12     0  02:24      0.52    0.17    1.00
  YS02001757CaochengTiaoxuchi CONDUIT   3080.33     0  02:24      3.92    1.33    1.00
  YS02001759YS02001757 CONDUIT   1228.82     0  02:25      1.56    0.87    1.00
  YS02001762YS02001759 CONDUIT    692.69     0  02:27      0.88    0.80    1.00
  YS02001765YS02001762 CONDUIT    692.28     0  02:27      0.88    0.65    1.00
  YS02001767YS02001765 CONDUIT    692.30     0  02:27      0.88    0.87    1.00
  YS02001770YS02001767 CONDUIT    690.90     0  02:27      0.88    2.74    1.00
  YS02001774YS02001770 CONDUIT    330.16     0  02:20      0.42    0.21    1.00
  YS02001779YS02001774 CONDUIT    337.15     0  02:20      0.44    0.17    1.00
  YS02001783YS02001784 CONDUIT   1157.35     0  02:25      2.30    1.60    1.00
  YS02001784YS02001785 CONDUIT   1157.77     0  02:25      2.30    2.69    1.00
  YS02001786YS02001788 CONDUIT   1157.80     0  02:24      2.47    2.23    0.89
  YS02001788YS02001790 CONDUIT   1167.15     0  02:25      2.70    0.86    0.84
  YS02001790YS02001791 CONDUIT   1285.30     0  02:23      3.43    1.40    0.70
  YS02001791YS02001793 CONDUIT   1237.23     0  02:26      6.50    0.53    0.44
  YS02001793JiankangQianchi CONDUIT   1233.73     0  02:24      2.45    0.10    0.64
  YS02001882YS02001884 CONDUIT     46.46     0  02:20      0.10    0.05    1.00
  YS02001884YS02001887 CONDUIT     75.99     0  02:19      0.10    0.10    1.00
  YS02001887YS02001890 CONDUIT    598.20     0  02:25      0.76    1.02    1.00
  YS02001890YS02001895 CONDUIT    513.88     0  02:26      0.65    0.24    1.00
  YS02001895YS02001898 CONDUIT    514.21     0  02:26      0.65    0.89    1.00
  YS02001898YS02001901 CONDUIT    514.18     0  02:26      0.65    0.33    1.00
  YS02001901YS02001904 CONDUIT    513.75     0  02:26      0.65    0.80    1.00
  YS02001904YS02001907 CONDUIT    513.96     0  02:26      0.65    0.18    1.00
  YS02001907YS02006553 CONDUIT    798.65     0  02:33      0.89    0.94    1.00
  YS02001910YS02001907 CONDUIT   1016.06     0  02:23      1.29    0.57    1.00
  YS02001915YS02001910 CONDUIT   1016.45     0  02:23      1.29    0.50    1.00
  YS02001918YS02001915 CONDUIT    453.83     0  02:23      0.58    0.25    1.00
  YS02001920YS02001918 CONDUIT    452.05     0  02:23      0.64    0.44    1.00
  YS02001923YS02001920 CONDUIT    448.54     0  02:23      0.71    0.20    1.00
  YS02001926YS02001923 CONDUIT    420.61     0  02:23      0.97    0.60    1.00
  YS02001929YS02001926 CONDUIT    417.23     0  02:23      1.14    0.20    1.00
  YS02006553YS02006556 CONDUIT    798.81     0  02:33      1.02    0.68    1.00
  YS02006556YS02006558 CONDUIT    800.52     0  02:33      1.02    0.63    1.00
  YS02006558YS02006561 CONDUIT   1169.49     0  02:22      4.14    2.58    1.00
  YS02006561YS02001783 CONDUIT   1156.80     0  02:25      2.30    0.60    1.00
  YS02163301YS02001633 CONDUIT    916.55     0  02:19      1.17    0.86    1.00
  YS02163601YS02164001 CONDUIT   1328.43     0  02:20      1.69    1.18    1.00
  YS02164001YS02001641 CONDUIT   1328.22     0  02:19      1.69    1.81    1.00
  CC-R1                PUMP       683.00     0  00:00              1.00
  CC-R2                PUMP       683.00     0  00:00              1.00
  CC-S1                PUMP       200.00     0  00:00              1.00
  CC-S2                PUMP       200.00     0  00:00              1.00
  JK-R1                PUMP      1000.00     0  00:00              1.00
  JK-R2                PUMP      1000.00     0  00:00              1.00
  JK-S                 PUMP       300.00     0  00:00              1.00
  XR-1                 PUMP        95.00     0  00:00              1.00
  XR-2                 PUMP        95.00     0  00:00              1.00
  XR-3                 PUMP        95.00     0  00:00              1.00
  XR-4                 PUMP        95.00     0  00:00              1.00
  
  
  ***************************
  Flow Classification Summary
  ***************************
  
  -------------------------------------------------------------------------------------
                      Adjusted    ---------- Fraction of Time in Flow Class ---------- 
                       /Actual         Up    Down  Sub   Sup   Up    Down  Norm  Inlet 
  Conduit               Length    Dry  Dry   Dry   Crit  Crit  Crit  Crit  Ltd   Ctrl  
  -------------------------------------------------------------------------------------
  1                       1.00   0.00  0.00  0.00  0.00  1.00  0.00  0.00  0.20  0.00
  WS02001211WS02001212    1.00   0.00  0.02  0.00  0.98  0.00  0.00  0.00  0.00  0.00
  WS02001212WS02001213    1.00   0.02  0.00  0.00  0.19  0.00  0.78  0.00  0.00  0.00
  WS02001213WS02003059    1.00   0.00  0.01  0.00  0.99  0.00  0.00  0.00  0.00  0.00
  WS02003059WS02003060    1.00   0.00  0.00  0.00  1.00  0.00  0.00  0.00  0.03  0.00
  WS02003060WS02003069    1.00   0.00  0.00  0.00  0.98  0.02  0.00  0.00  0.72  0.00
  WS02003066WSF200        1.00   0.13  0.00  0.00  0.00  0.87  0.00  0.00  0.77  0.00
  WS02003067WS02003066    1.00   0.10  0.02  0.00  0.88  0.00  0.00  0.00  0.00  0.00
  WS02003069WS02003072    1.00   0.00  0.00  0.00  1.00  0.00  0.00  0.00  0.78  0.00
  WS02003072WS02003073    1.00   0.00  0.00  0.00  0.00  0.00  0.00  1.00  0.00  0.00
  WS02004138WS02004139    1.00   0.00  0.00  0.00  0.97  0.01  0.00  0.02  0.98  0.00
  WS02004139WS02001211    1.00   0.00  0.00  0.00  0.99  0.00  0.00  0.00  0.00  0.00
  WS02004401WS02004402    1.00   0.02  0.00  0.00  0.98  0.00  0.00  0.00  0.00  0.00
  WS02004402WS02004403    1.00   0.02  0.00  0.00  0.97  0.00  0.00  0.00  0.00  0.00
  WS02004403WS02004404    1.00   0.00  0.03  0.00  0.97  0.00  0.00  0.00  0.00  0.00
  WS02004404WS02004405    1.00   0.00  0.00  0.00  1.00  0.00  0.00  0.00  0.00  0.00
  WS02004405WS02004406    1.00   0.00  0.00  0.00  1.00  0.00  0.00  0.00  0.00  0.00
  WS02004406WS02004407    1.00   0.00  0.05  0.00  0.95  0.00  0.00  0.00  0.00  0.00
  WS02004407WS02004409    1.00   0.05  0.00  0.00  0.94  0.01  0.00  0.00  0.94  0.00
  WS02004409WS02004410    1.00   0.05  0.00  0.00  0.95  0.00  0.00  0.00  0.03  0.00
  WS02004410WS02004411    1.00   0.05  0.00  0.00  0.95  0.00  0.00  0.00  0.01  0.00
  WS02004411WS02004412    1.00   0.05  0.00  0.00  0.95  0.00  0.00  0.00  0.00  0.00
  WS02004412WS02004413    1.00   0.05  0.00  0.00  0.94  0.00  0.00  0.00  0.01  0.00
  WS02004413WS02003067    1.00   0.06  0.04  0.00  0.00  0.00  0.90  0.00  0.00  0.00
  WS02006109WS02006110    1.00   0.00  0.01  0.00  0.98  0.00  0.01  0.00  0.00  0.00
  WS02006110WS02006113    1.00   0.01  0.01  0.00  0.98  0.00  0.00  0.00  0.00  0.00
  WS02006111WS02006112    1.00   0.02  0.00  0.00  0.98  0.00  0.00  0.00  0.98  0.00
  WS02006112WS02006115    1.00   0.02  0.00  0.00  0.97  0.00  0.00  0.00  0.00  0.00
  WS02006113WS02006111    1.00   0.02  0.00  0.00  0.00  0.98  0.00  0.00  0.08  0.00
  WS02006115WS02006116    1.00   0.02  0.00  0.00  0.97  0.00  0.00  0.01  0.00  0.00
  WS02006116WS02004401    1.00   0.02  0.00  0.00  0.98  0.00  0.00  0.00  0.00  0.00
  WS02006228WS02006109    1.00   0.00  0.00  0.00  1.00  0.00  0.00  0.00  0.00  0.00
  WS02006229WS02006228    1.00   0.00  0.00  0.00  0.99  0.00  0.00  0.01  0.00  0.00
  WS02006230WS02006229    1.00   0.00  0.00  0.00  0.99  0.00  0.00  0.01  0.03  0.00
  WS02006231WS02006230    1.00   0.00  0.00  0.00  0.18  0.00  0.82  0.00  0.00  0.00
  WS02006232WS02006231    1.00   0.00  0.00  0.00  0.98  0.00  0.01  0.00  0.00  0.00
  WS02006234WS02006232    1.00   0.00  0.00  0.00  1.00  0.00  0.00  0.00  0.29  0.00
  WS02006235WS02006234    1.00   0.00  0.00  0.00  0.64  0.00  0.36  0.00  0.00  0.00
  WS02006238WS02006235    1.00   0.00  0.00  0.00  1.00  0.00  0.00  0.00  0.00  0.00
  WS02006239WS02006238    1.00   0.00  0.00  0.00  1.00  0.00  0.00  0.00  0.47  0.00
  WS02006240WS02006239    1.00   0.00  0.00  0.00  0.42  0.00  0.00  0.58  0.02  0.00
  WS02006242WS02006240    1.00   0.00  0.00  0.00  1.00  0.00  0.00  0.00  0.00  0.00
  WS02006243WS02006242    1.00   0.00  0.00  0.00  0.99  0.00  0.00  0.01  0.75  0.00
  WS02006245WS02006243    1.00   0.00  0.00  0.00  0.44  0.00  0.00  0.56  0.01  0.00
  WS02006247WS02006245    1.00   0.00  0.00  0.00  0.98  0.00  0.00  0.02  0.00  0.00
  WS02006248WS02006247    1.00   0.00  0.00  0.00  0.99  0.00  0.00  0.01  0.24  0.00
  WS02006249WS02006248    1.00   0.00  0.00  0.00  0.28  0.00  0.72  0.00  0.00  0.00
  WS02006251WS02006249    1.00   0.00  0.00  0.00  0.99  0.01  0.00  0.00  0.75  0.00
  WS02006252WS02006251    1.00   0.00  0.78  0.00  0.09  0.00  0.13  0.00  0.01  0.00
  WS02006256WS02006235    1.00   0.00  0.00  0.00  0.99  0.01  0.00  0.00  0.00  0.00
  WSF200WS02003060        1.00   0.00  0.13  0.00  0.71  0.17  0.00  0.00  0.68  0.00
  YS02001580YS02001583    1.00   0.28  0.56  0.00  0.16  0.00  0.00  0.00  0.65  0.00
  YS02001583YS02001586    1.00   0.49  0.30  0.00  0.21  0.00  0.00  0.00  0.65  0.00
  YS02001586YS02001590    1.00   0.13  0.00  0.00  0.39  0.04  0.00  0.44  0.36  0.00
  YS02001590YS02001593    1.00   0.13  0.01  0.00  0.08  0.00  0.79  0.00  0.00  0.00
  YS02001593YS02001596    1.00   0.14  0.00  0.00  0.09  0.01  0.00  0.76  0.02  0.00
  YS02001596YS02001600    1.00   0.14  0.00  0.00  0.16  0.01  0.00  0.69  0.05  0.00
  YS02001600YS02001601    1.00   0.13  0.01  0.00  0.86  0.00  0.00  0.00  0.64  0.00
  YS02001601YS02001602    1.00   0.13  0.01  0.00  0.86  0.00  0.00  0.00  0.00  0.00
  YS02001602YS02001605    1.00   0.14  0.00  0.00  0.86  0.00  0.00  0.00  0.00  0.00
  YS02001605YS02001607    1.00   0.14  0.00  0.00  0.86  0.00  0.00  0.00  0.00  0.00
  YS02001607YS02001610    1.00   0.13  0.01  0.00  0.86  0.00  0.00  0.00  0.02  0.00
  YS02001610YS02001613    1.00   0.13  0.00  0.00  0.87  0.00  0.00  0.00  0.01  0.00
  YS02001613YS02001616    1.00   0.13  0.00  0.00  0.87  0.00  0.00  0.00  0.01  0.00
  YS02001616YS02001619    1.00   0.13  0.00  0.00  0.87  0.00  0.00  0.00  0.00  0.00
  YS02001619YS02001622    1.00   0.13  0.00  0.00  0.87  0.00  0.00  0.00  0.34  0.00
  YS02001622YS02001625    1.00   0.13  0.00  0.00  0.87  0.00  0.00  0.00  0.06  0.00
  YS02001625YS02001629    1.00   0.13  0.06  0.00  0.12  0.00  0.69  0.00  0.00  0.00
  YS02001629YS02163301    1.00   0.16  0.01  0.00  0.83  0.00  0.00  0.00  0.00  0.00
  YS02001633YS02163601    1.00   0.00  0.01  0.00  0.99  0.00  0.00  0.00  0.15  0.00
  YS02001641YS02001644    1.00   0.00  0.01  0.00  0.99  0.00  0.00  0.00  0.00  0.00
  YS02001644YS02001647    1.00   0.00  0.18  0.00  0.82  0.00  0.00  0.00  0.00  0.00
  YS02001647YS02001649    1.00   0.00  0.18  0.00  0.53  0.29  0.00  0.00  0.58  0.00
  YS02001649YS02001757    1.00   0.00  0.00  0.00  0.69  0.31  0.00  0.00  0.53  0.00
  YS02001652YS02001649    1.00   0.00  0.00  0.00  0.96  0.04  0.00  0.00  0.79  0.00
  YS02001655YS02001652    1.00   0.00  0.00  0.00  0.14  0.01  0.00  0.85  0.04  0.00
  YS02001658YS02001655    1.00   0.00  0.14  0.00  0.64  0.22  0.00  0.00  0.74  0.00
  YS02001661YS02001658    1.00   0.14  0.00  0.00  0.50  0.35  0.00  0.00  0.74  0.00
  YS02001664YS02001661    1.00   0.13  0.00  0.00  0.79  0.09  0.00  0.00  0.86  0.00
  YS02001745YS02001748    1.00   0.00  0.00  0.00  0.06  0.01  0.00  0.94  0.03  0.00
  YS02001748YS02001751    1.00   0.00  0.00  0.00  0.82  0.18  0.00  0.00  0.76  0.00
  YS02001751YS02001754    1.00   0.00  0.00  0.00  0.11  0.00  0.00  0.88  0.02  0.00
  YS02001754YS02001757    1.00   0.00  0.00  0.00  1.00  0.00  0.00  0.00  0.87  0.00
  YS02001757CaochengTiaoxuchi    1.00   0.00  0.00  0.00  1.00  0.00  0.00  0.00  0.87  0.00
  YS02001759YS02001757    1.00   0.00  0.00  0.00  1.00  0.00  0.00  0.00  0.64  0.00
  YS02001762YS02001759    1.00   0.00  0.00  0.00  1.00  0.00  0.00  0.00  0.06  0.00
  YS02001765YS02001762    1.00   0.00  0.00  0.00  1.00  0.00  0.00  0.00  0.77  0.00
  YS02001767YS02001765    1.00   0.00  0.00  0.00  1.00  0.00  0.00  0.00  0.00  0.00
  YS02001770YS02001767    1.00   0.00  0.00  0.00  1.00  0.00  0.00  0.00  0.00  0.00
  YS02001774YS02001770    1.00   0.00  0.13  0.00  0.60  0.00  0.26  0.00  0.04  0.00
  YS02001779YS02001774    1.00   0.00  0.00  0.00  1.00  0.00  0.00  0.00  0.81  0.00
  YS02001783YS02001784    1.00   0.00  0.19  0.00  0.81  0.00  0.00  0.00  0.58  0.00
  YS02001784YS02001785    1.00   0.00  0.00  0.00  1.00  0.00  0.00  0.00  0.18  0.00
  YS02001786YS02001788    1.00   0.00  0.00  0.00  0.80  0.20  0.00  0.00  0.00  0.00
  YS02001788YS02001790    1.00   0.00  0.00  0.00  0.22  0.78  0.00  0.00  0.84  0.00
  YS02001790YS02001791    1.00   0.00  0.00  0.00  0.01  0.99  0.00  0.00  0.15  0.00
  YS02001791YS02001793    1.00   0.00  0.00  0.00  0.00  1.00  0.00  0.00  0.01  0.00
  YS02001793JiankangQianchi    1.00   0.00  0.00  0.00  0.99  0.00  0.00  0.00  0.97  0.00
  YS02001882YS02001884    1.00   0.16  0.01  0.00  0.83  0.00  0.00  0.00  0.00  0.00
  YS02001884YS02001887    1.00   0.06  0.05  0.00  0.89  0.00  0.00  0.00  0.00  0.00
  YS02001887YS02001890    1.00   0.00  0.00  0.00  0.97  0.00  0.03  0.00  0.00  0.00
  YS02001890YS02001895    1.00   0.00  0.17  0.00  0.82  0.00  0.00  0.00  0.00  0.00
  YS02001895YS02001898    1.00   0.18  0.00  0.00  0.80  0.00  0.02  0.00  0.00  0.00
  YS02001898YS02001901    1.00   0.18  0.00  0.00  0.82  0.00  0.00  0.00  0.02  0.00
  YS02001901YS02001904    1.00   0.17  0.00  0.00  0.83  0.00  0.00  0.00  0.00  0.00
  YS02001904YS02001907    1.00   0.00  0.17  0.00  0.83  0.00  0.00  0.00  0.00  0.00
  YS02001907YS02006553    1.00   0.00  0.02  0.00  0.98  0.00  0.00  0.00  0.00  0.00
  YS02001910YS02001907    1.00   0.00  0.00  0.00  0.97  0.00  0.00  0.03  0.12  0.00
  YS02001915YS02001910    1.00   0.00  0.00  0.00  0.96  0.04  0.00  0.00  0.17  0.00
  YS02001918YS02001915    1.00   0.00  0.01  0.00  0.98  0.02  0.00  0.00  0.79  0.00
  YS02001920YS02001918    1.00   0.00  0.01  0.00  0.99  0.00  0.00  0.00  0.00  0.00
  YS02001923YS02001920    1.00   0.00  0.00  0.00  1.00  0.00  0.00  0.00  0.95  0.00
  YS02001926YS02001923    1.00   0.00  0.07  0.00  0.03  0.00  0.89  0.00  0.00  0.00
  YS02001929YS02001926    1.00   0.00  0.13  0.00  0.87  0.00  0.00  0.00  0.84  0.00
  YS02006553YS02006556    1.00   0.01  0.00  0.00  0.99  0.00  0.00  0.00  0.03  0.00
  YS02006556YS02006558    1.00   0.00  0.00  0.00  1.00  0.00  0.00  0.00  0.00  0.00
  YS02006558YS02006561    1.00   0.19  0.00  0.00  0.03  0.78  0.00  0.00  0.18  0.00
  YS02006561YS02001783    1.00   0.19  0.00  0.00  0.06  0.75  0.00  0.00  0.71  0.00
  YS02163301YS02001633    1.00   0.00  0.16  0.00  0.84  0.00  0.00  0.00  0.00  0.00
  YS02163601YS02164001    1.00   0.00  0.08  0.00  0.92  0.00  0.00  0.00  0.00  0.00
  YS02164001YS02001641    1.00   0.01  0.07  0.00  0.92  0.00  0.00  0.00  0.06  0.00
  
  
  *************************
  Conduit Surcharge Summary
  *************************
  
  ----------------------------------------------------------------------------
                                                           Hours        Hours 
                         --------- Hours Full --------   Above Full   Capacity
  Conduit                Both Ends  Upstream  Dnstream   Normal Flow   Limited
  ----------------------------------------------------------------------------
  WS02003072WS02003073        0.01      0.01      0.01      1.52         0.01
  WS02004404WS02004405        0.01      0.01      0.01      1.80         0.01
  WS02004405WS02004406        0.01      0.01      0.01      0.54         0.01
  WS02006109WS02006110        0.47      0.47      1.38      0.63         0.01
  WS02006110WS02006113        0.01      0.01      1.35      0.01         0.01
  WS02006111WS02006112        0.01      0.01      1.48      0.01         0.01
  WS02006112WS02006115        0.01      0.01      0.63      0.01         0.01
  WS02006228WS02006109        1.32      1.38      1.32      1.59         1.32
  WS02006229WS02006228        1.31      1.33      1.31      1.52         1.30
  WS02006230WS02006229        1.43      1.46      1.43      2.30         1.43
  WS02006231WS02006230        0.48      0.48      0.73      1.97         0.01
  WS02006232WS02006231        0.66      0.66      1.39      0.74         0.01
  WS02006234WS02006232        1.24      1.24      1.39      0.72         0.70
  WS02006235WS02006234        1.05      1.06      1.27      1.93         0.02
  WS02006238WS02006235        1.30      1.31      1.38      0.01         0.01
  WS02006239WS02006238        1.31      1.32      1.34      1.33         1.11
  WS02006240WS02006239        1.28      1.31      1.28      1.34         1.04
  WS02006242WS02006240        1.31      1.31      1.33      1.38         0.01
  WS02006243WS02006242        1.31      1.31      1.32      0.01         0.06
  WS02006245WS02006243        1.30      1.30      1.30      0.80         0.77
  WS02006247WS02006245        1.30      1.30      1.30      1.61         1.28
  WS02006248WS02006247        1.29      1.29      1.30      0.01         0.07
  WS02006249WS02006248        1.29      1.29      1.29      1.60         0.01
  WS02006251WS02006249        1.29      1.29      1.29      1.37         1.20
  WS02006252WS02006251        1.44      1.44      1.45      1.45         0.01
  WS02006256WS02006235        1.89      1.95      4.13      1.13         0.01
  YS02001580YS02001583        0.37      0.37      0.41      0.01         0.01
  YS02001583YS02001586        0.38      0.38      0.47      0.01         0.01
  YS02001586YS02001590        0.48      0.48      0.53      0.01         0.01
  YS02001590YS02001593        0.53      0.53      0.55      0.55         0.01
  YS02001593YS02001596        0.54      0.54      0.63      0.01         0.01
  YS02001596YS02001600        0.67      0.67      0.76      0.01         0.01
  YS02001600YS02001601        0.81      0.81      1.08      0.01         0.01
  YS02001601YS02001602        0.97      0.97      1.12      0.76         0.01
  YS02001602YS02001605        0.92      0.92      0.97      1.99         0.01
  YS02001605YS02001607        0.88      0.92      0.88      1.04         0.88
  YS02001607YS02001610        0.51      0.51      0.53      0.01         0.01
  YS02001610YS02001613        0.50      0.50      0.53      0.01         0.01
  YS02001613YS02001616        0.47      0.47      0.50      0.01         0.01
  YS02001616YS02001619        0.46      0.46      0.47      0.01         0.01
  YS02001619YS02001622        0.46      0.46      0.46      0.54         0.43
  YS02001622YS02001625        0.46      0.46      0.61      0.01         0.01
  YS02001625YS02001629        0.42      0.42      0.61      0.01         0.01
  YS02001629YS02163301        0.60      0.60      0.61      0.11         0.14
  YS02001633YS02163601        0.63      0.63      0.65      0.26         0.25
  YS02001641YS02001644        0.54      0.56      0.54      1.16         0.53
  YS02001644YS02001647        0.37      0.37      0.54      0.01         0.01
  YS02001647YS02001649        0.37      0.37      0.46      0.01         0.01
  YS02001649YS02001757        0.46      0.46      0.51      0.05         0.06
  YS02001652YS02001649        0.34      0.34      0.46      0.01         0.01
  YS02001655YS02001652        0.22      0.22      0.32      0.01         0.01
  YS02001658YS02001655        0.11      0.11      0.22      0.01         0.01
  YS02001661YS02001658        0.01      0.01      0.11      0.01         0.01
  YS02001664YS02001661        0.01      0.01      0.01      0.01         0.01
  YS02001745YS02001748        0.01      0.01      0.06      0.01         0.01
  YS02001748YS02001751        0.10      0.10      0.16      0.01         0.01
  YS02001751YS02001754        0.16      0.16      0.26      0.01         0.01
  YS02001754YS02001757        0.28      0.28      0.51      0.01         0.01
  YS02001757CaochengTiaoxuchi        0.51      0.51      1.07      0.20         0.20
  YS02001759YS02001757        0.43      0.43      0.51      0.01         0.01
  YS02001762YS02001759        0.40      0.40      0.43      0.01         0.01
  YS02001765YS02001762        0.37      0.37      0.40      0.01         0.01
  YS02001767YS02001765        0.35      0.35      0.37      0.01         0.02
  YS02001770YS02001767        0.35      0.35      0.35      0.29         0.24
  YS02001774YS02001770        0.33      0.33      0.39      0.01         0.01
  YS02001779YS02001774        0.25      0.25      0.39      0.01         0.01
  YS02001783YS02001784        0.30      0.33      0.30      0.45         0.30
  YS02001784YS02001785        0.21      0.30      0.21      0.64         0.21
  YS02001786YS02001788        0.01      0.21      0.01      0.55         0.01
  YS02001790YS02001791        0.01      0.01      0.01      0.29         0.01
  YS02001793JiankangQianchi        0.01      0.01      7.70      0.01         0.01
  YS02001882YS02001884        0.28      0.28      0.29      0.01         0.01
  YS02001884YS02001887        0.31      0.31      0.32      0.01         0.01
  YS02001887YS02001890        0.33      0.33      0.34      0.01         0.01
  YS02001890YS02001895        0.27      0.27      0.35      0.01         0.01
  YS02001895YS02001898        0.27      0.27      0.27      0.01         0.01
  YS02001898YS02001901        0.27      0.27      0.31      0.01         0.01
  YS02001901YS02001904        0.30      0.30      0.31      0.01         0.01
  YS02001904YS02001907        0.30      0.30      0.53      0.01         0.01
  YS02001907YS02006553        0.64      0.64      0.69      0.01         0.01
  YS02001910YS02001907        0.35      0.35      0.52      0.01         0.01
  YS02001915YS02001910        0.28      0.28      0.35      0.01         0.01
  YS02001918YS02001915        0.21      0.21      0.28      0.01         0.01
  YS02001920YS02001918        0.21      0.21      0.22      0.01         0.01
  YS02001923YS02001920        0.17      0.17      0.22      0.01         0.01
  YS02001926YS02001923        0.01      0.01      0.01      0.01         0.01
  YS02001929YS02001926        0.01      0.01      0.01      0.01         0.01
  YS02006553YS02006556        0.43      0.43      0.53      0.01         0.01
  YS02006556YS02006558        0.47      0.47      0.54      0.01         0.01
  YS02006558YS02006561        0.23      0.42      0.23      0.60         0.23
  YS02006561YS02001783        0.18      0.18      0.33      0.01         0.01
  YS02163301YS02001633        0.61      0.61      0.64      0.01         0.01
  YS02163601YS02164001        0.57      0.57      0.65      0.07         0.01
  YS02164001YS02001641        0.56      0.57      0.56      0.53         0.43
  
  
  ***************
  Pumping Summary
  ***************
  
  ---------------------------------------------------------------------------------------------------------
                                                  Min       Avg       Max     Total     Power    % Time Off
                        Percent   Number of      Flow      Flow      Flow    Volume     Usage    Pump Curve
  Pump                 Utilized   Start-Ups       LPS       LPS       LPS  10^6 ltr     Kw-hr    Low   High
  ---------------------------------------------------------------------------------------------------------
  CC-R1                   16.56          14      0.00    683.00    683.00     3.257     59.58    0.0   28.3
  CC-R2                   15.35          14      0.00    683.00    683.00     3.020     55.19    0.0   30.5
  CC-S1                   20.84          14      0.00    200.00    200.00     1.201      7.10    0.0    0.0
  CC-S2                   18.08          14      0.00    200.00    200.00     1.041      6.14    0.0    0.0
  JK-R1                    5.67          11      0.00   1000.00   1000.00     1.634     19.57    0.0    0.0
  JK-R2                    0.16           1      0.00   1000.00   1000.00     0.047      0.36    0.0    0.0
  JK-S                    13.97          23      0.00    300.00    300.00     1.207     15.56    0.0    0.0
  XR-1                    97.91           2      0.00     95.00     95.00     2.679      9.60    0.0    0.0
  XR-2                    93.94           2      0.00     95.00     95.00     2.570      8.76    0.0    0.0
  XR-3                     0.00           1      0.00     95.00     95.00     0.000      0.00    0.0    0.0
  XR-4                     0.00           1      0.00     95.00     95.00     0.000      0.00    0.0    0.0
  

  Analysis begun on:  Wed Nov  5 16:30:35 2025
  Analysis ended on:  Wed Nov  5 16:30:38 2025
  Total elapsed time: 00:00:03